16
Atomic coordinates from LammpsImplicitDer
Ni 0.117634 0.010526 0.221222
Ni 1.645416 1.799324 1.411242
Ni 3.128184 -0.137708 0.209163
Mo -1.670874 1.586625 1.554260
Mo 0.007782 -3.059673 -0.132936
Mo 1.606540 -1.716290 1.794681
Mo -3.092780 -2.871575 -0.244428
Mo -1.515289 -1.551977 1.758639
Mo 0.246482 0.223529 3.123453
Ni 1.660046 1.477753 -1.357086
Ni 3.030105 0.150055 2.996305
Mo -1.715757 1.340502 -1.506675
Ni -0.070768 2.968917 -3.060065
Ni 1.474771 -1.538236 -1.649954
Ni -2.968806 -3.090192 -3.012477
Ni -1.381882 -1.350887 -1.604443
