16
Atomic coordinates from LammpsImplicitDer
Ni 0.117765 0.010827 0.220961
Ni 1.645599 1.799378 1.411056
Ni 3.128109 -0.137878 0.209360
Mo -1.671177 1.586582 1.554365
Mo 0.007859 -3.059857 -0.133259
Mo 1.606442 -1.716367 1.794801
Mo -3.092810 -2.871383 -0.244513
Mo -1.515225 -1.551783 1.758882
Mo 0.246973 0.223910 3.123793
Ni 1.660634 1.477869 -1.356899
Ni 3.029628 0.149940 2.996302
Mo -1.716323 1.340240 -1.506857
Ni -0.070858 2.968671 -3.059954
Ni 1.474737 -1.538505 -1.650276
Ni -2.968771 -3.090119 -3.012299
Ni -1.381777 -1.350830 -1.604564
