16
Atomic coordinates from LammpsImplicitDer
Ni 0.118040 0.009495 0.222152
Ni 1.645190 1.799671 1.410993
Ni 3.127998 -0.137880 0.209141
Mo -1.670881 1.586727 1.553691
Mo 0.007429 -3.058755 -0.132696
Mo 1.606708 -1.717332 1.795612
Mo -3.092462 -2.870832 -0.245150
Mo -1.515387 -1.552658 1.758862
Mo 0.246134 0.223727 3.121851
Ni 1.658773 1.476966 -1.356757
Ni 3.030887 0.150894 2.995846
Mo -1.715090 1.340240 -1.505858
Ni -0.070905 2.968857 -3.060186
Ni 1.474255 -1.537700 -1.649776
Ni -2.968423 -3.090322 -3.012294
Ni -1.381462 -1.350402 -1.604528
