16
Atomic coordinates from LammpsImplicitDer
Ni 0.117771 0.010781 0.221007
Ni 1.645589 1.799393 1.411049
Ni 3.128108 -0.137883 0.209356
Mo -1.671165 1.586589 1.554343
Mo 0.007847 -3.059828 -0.133241
Mo 1.606453 -1.716389 1.794824
Mo -3.092803 -2.871364 -0.244540
Mo -1.515228 -1.551809 1.758882
Mo 0.246943 0.223899 3.123742
Ni 1.660577 1.477843 -1.356900
Ni 3.029667 0.149970 2.996288
Mo -1.716289 1.340239 -1.506827
Ni -0.070860 2.968672 -3.059959
Ni 1.474723 -1.538474 -1.650261
Ni -2.968765 -3.090127 -3.012301
Ni -1.381764 -1.350815 -1.604565
