16
Atomic coordinates from LammpsImplicitDer
Ni 0.117522 0.011603 0.220087
Ni 1.645635 1.798958 1.411401
Ni 3.128178 -0.137583 0.209246
Mo -1.671164 1.586452 1.554779
Mo 0.008050 -3.060304 -0.133379
Mo 1.606259 -1.715868 1.794210
Mo -3.092922 -2.871987 -0.243790
Mo -1.515243 -1.551387 1.758648
Mo 0.247218 0.223861 3.124555
Ni 1.661373 1.478315 -1.357000
Ni 3.029192 0.149380 2.996598
Mo -1.716553 1.340518 -1.507345
Ni -0.070731 2.968918 -3.059957
Ni 1.475074 -1.538984 -1.650318
Ni -2.968892 -3.089975 -3.012402
Ni -1.382192 -1.351220 -1.604435
