16
Atomic coordinates from LammpsImplicitDer
Ni 0.117703 0.011357 0.220396
Ni 1.645699 1.799187 1.411148
Ni 3.128108 -0.137803 0.209391
Mo -1.671309 1.586496 1.554622
Mo 0.007990 -3.060162 -0.133466
Mo 1.606303 -1.716157 1.794560
Mo -3.092877 -2.871601 -0.244183
Mo -1.515207 -1.551496 1.758875
Mo 0.247321 0.224062 3.124326
Ni 1.661272 1.478144 -1.356860
Ni 3.029193 0.149605 2.996449
Mo -1.716693 1.340262 -1.507185
Ni -0.070836 2.968687 -3.059907
Ni 1.474889 -1.538874 -1.650443
Ni -2.968812 -3.090011 -3.012269
Ni -1.381939 -1.351002 -1.604553
