16
Atomic coordinates from LammpsImplicitDer
Ni 0.117927 0.009929 0.221804
Ni 1.645355 1.799610 1.410983
Ni 3.128054 -0.137915 0.209238
Mo -1.670969 1.586694 1.553916
Mo 0.007589 -3.059179 -0.132886
Mo 1.606637 -1.716934 1.795309
Mo -3.092611 -2.871013 -0.244977
Mo -1.515312 -1.552342 1.758874
Mo 0.246400 0.223749 3.122600
Ni 1.659431 1.477299 -1.356849
Ni 3.030444 0.150563 2.996010
Mo -1.715549 1.340231 -1.506217
Ni -0.070892 2.968754 -3.060087
Ni 1.474431 -1.537941 -1.649957
Ni -2.968583 -3.090269 -3.012309
Ni -1.381548 -1.350541 -1.604552
