16
Atomic coordinates from LammpsImplicitDer
Ni 0.117491 0.012713 0.218736
Ni 1.645759 1.798448 1.411678
Ni 3.128084 -0.137349 0.209243
Mo -1.671468 1.586234 1.555293
Mo 0.008273 -3.060759 -0.133823
Mo 1.605916 -1.715706 1.793863
Mo -3.092977 -2.872409 -0.243012
Mo -1.515272 -1.550865 1.758628
Mo 0.248014 0.224344 3.125331
Ni 1.662624 1.478723 -1.356751
Ni 3.028330 0.148776 2.996830
Mo -1.717204 1.340561 -1.507932
Ni -0.070673 2.969078 -3.059873
Ni 1.475340 -1.539809 -1.650662
Ni -2.968849 -3.089717 -3.012249
Ni -1.382584 -1.351565 -1.604397
