16
Atomic coordinates from LammpsImplicitDer
Ni 0.117694 0.011456 0.220286
Ni 1.645715 1.799147 1.411168
Ni 3.128106 -0.137786 0.209393
Mo -1.671335 1.586479 1.554670
Mo 0.008012 -3.060214 -0.133504
Mo 1.606275 -1.716126 1.794519
Mo -3.092887 -2.871641 -0.244117
Mo -1.515206 -1.551445 1.758873
Mo 0.247386 0.224094 3.124414
Ni 1.661387 1.478192 -1.356849
Ni 3.029114 0.149545 2.996475
Mo -1.716756 1.340267 -1.507243
Ni -0.070832 2.968694 -3.059901
Ni 1.474915 -1.538945 -1.650474
Ni -2.968815 -3.089989 -3.012262
Ni -1.381971 -1.351034 -1.604550
