16
Atomic coordinates from LammpsImplicitDer
Ni 0.117672 0.011720 0.219986
Ni 1.645752 1.799037 1.411228
Ni 3.128097 -0.137735 0.209397
Mo -1.671402 1.586431 1.554795
Mo 0.008069 -3.060342 -0.133603
Mo 1.606200 -1.716053 1.794415
Mo -3.092908 -2.871750 -0.243938
Mo -1.515205 -1.551313 1.758865
Mo 0.247562 0.224185 3.124634
Ni 1.661686 1.478313 -1.356812
Ni 3.028909 0.149389 2.996542
Mo -1.716916 1.340283 -1.507393
Ni -0.070820 2.968720 -3.059885
Ni 1.474983 -1.539140 -1.650554
Ni -2.968817 -3.089931 -3.012239
Ni -1.382060 -1.351120 -1.604540
