16
Atomic coordinates from LammpsImplicitDer
Ni 0.117702 0.011371 0.220381
Ni 1.645701 1.799181 1.411151
Ni 3.128108 -0.137801 0.209391
Mo -1.671313 1.586494 1.554629
Mo 0.007993 -3.060170 -0.133472
Mo 1.606299 -1.716152 1.794554
Mo -3.092879 -2.871606 -0.244174
Mo -1.515207 -1.551488 1.758875
Mo 0.247330 0.224067 3.124339
Ni 1.661288 1.478151 -1.356859
Ni 3.029182 0.149597 2.996453
Mo -1.716702 1.340263 -1.507193
Ni -0.070835 2.968688 -3.059906
Ni 1.474893 -1.538884 -1.650448
Ni -2.968812 -3.090008 -3.012268
Ni -1.381943 -1.351007 -1.604553
