16
Atomic coordinates from LammpsImplicitDer
Ni 0.117489 0.012589 0.218897
Ni 1.645750 1.798510 1.411644
Ni 3.128101 -0.137377 0.209245
Mo -1.671435 1.586260 1.555236
Mo 0.008248 -3.060715 -0.133769
Mo 1.605956 -1.715714 1.793896
Mo -3.092971 -2.872362 -0.243100
Mo -1.515265 -1.550920 1.758631
Mo 0.247921 0.224282 3.125255
Ni 1.662483 1.478691 -1.356787
Ni 3.028426 0.148838 2.996810
Mo -1.717132 1.340559 -1.507870
Ni -0.070685 2.969052 -3.059889
Ni 1.475306 -1.539726 -1.650627
Ni -2.968854 -3.089745 -3.012271
Ni -1.382536 -1.351527 -1.604401
