16
Atomic coordinates from LammpsImplicitDer
Ni 0.118005 0.009619 0.222057
Ni 1.645241 1.799658 1.410986
Ni 3.128016 -0.137894 0.209172
Mo -1.670905 1.586720 1.553755
Mo 0.007477 -3.058884 -0.132751
Mo 1.606689 -1.717209 1.795521
Mo -3.092509 -2.870884 -0.245105
Mo -1.515363 -1.552564 1.758866
Mo 0.246209 0.223729 3.122078
Ni 1.658967 1.477065 -1.356789
Ni 3.030757 0.150798 2.995894
Mo -1.715228 1.340237 -1.505965
Ni -0.070901 2.968823 -3.060155
Ni 1.474307 -1.537766 -1.649830
Ni -2.968474 -3.090308 -3.012300
Ni -1.381485 -1.350442 -1.604536
