16
Atomic coordinates from LammpsImplicitDer
Ni 0.117681 0.011610 0.220112
Ni 1.645737 1.799084 1.411202
Ni 3.128101 -0.137757 0.209396
Mo -1.671374 1.586451 1.554743
Mo 0.008046 -3.060290 -0.133562
Mo 1.606232 -1.716082 1.794458
Mo -3.092900 -2.871704 -0.244014
Mo -1.515205 -1.551367 1.758869
Mo 0.247489 0.224146 3.124545
Ni 1.661562 1.478263 -1.356828
Ni 3.028994 0.149453 2.996514
Mo -1.716851 1.340276 -1.507331
Ni -0.070825 2.968708 -3.059891
Ni 1.474955 -1.539058 -1.650520
Ni -2.968817 -3.089955 -3.012249
Ni -1.382022 -1.351084 -1.604544
