16
Atomic coordinates from LammpsImplicitDer
Ni 0.117669 0.011761 0.219939
Ni 1.645758 1.799019 1.411238
Ni 3.128095 -0.137727 0.209397
Mo -1.671412 1.586424 1.554815
Mo 0.008078 -3.060360 -0.133618
Mo 1.606188 -1.716043 1.794399
Mo -3.092910 -2.871766 -0.243909
Mo -1.515205 -1.551292 1.758864
Mo 0.247589 0.224199 3.124666
Ni 1.661732 1.478331 -1.356805
Ni 3.028878 0.149365 2.996552
Mo -1.716940 1.340286 -1.507416
Ni -0.070818 2.968725 -3.059883
Ni 1.474993 -1.539170 -1.650566
Ni -2.968817 -3.089921 -3.012235
Ni -1.382074 -1.351134 -1.604538
