16
Atomic coordinates from LammpsImplicitDer
Ni 0.117495 0.012099 0.219507
Ni 1.645701 1.798743 1.411517
Ni 3.128150 -0.137484 0.209250
Mo -1.671299 1.586359 1.555011
Mo 0.008152 -3.060526 -0.133569
Mo 1.606111 -1.715766 1.794036
Mo -3.092951 -2.872179 -0.243447
Mo -1.515248 -1.551146 1.758639
Mo 0.247562 0.224055 3.124934
Ni 1.661933 1.478526 -1.356909
Ni 3.028806 0.149097 2.996714
Mo -1.716849 1.340542 -1.507617
Ni -0.070712 2.968973 -3.059928
Ni 1.475192 -1.539361 -1.650475
Ni -2.968880 -3.089861 -3.012345
Ni -1.382359 -1.351376 -1.604417
