16
Atomic coordinates from LammpsImplicitDer
Ni 0.117886 0.009327 0.222224
Ni 1.644982 1.799507 1.411269
Ni 3.128069 -0.137618 0.208898
Mo -1.670583 1.586734 1.553653
Mo 0.007364 -3.058585 -0.132380
Mo 1.606760 -1.717247 1.795424
Mo -3.092416 -2.871128 -0.244904
Mo -1.515474 -1.552814 1.758570
Mo 0.245687 0.223370 3.121527
Ni 1.658253 1.476891 -1.356920
Ni 3.031328 0.150932 2.995886
Mo -1.714499 1.340562 -1.505729
Ni -0.070792 2.969191 -3.060328
Ni 1.474325 -1.537538 -1.649440
Ni -2.968430 -3.090356 -3.012481
Ni -1.381655 -1.350532 -1.604368
