16
Atomic coordinates from LammpsImplicitDer
Ni 0.117636 0.012573 0.218947
Ni 1.645842 1.798635 1.411454
Ni 3.128032 -0.137542 0.209383
Mo -1.671623 1.586263 1.555193
Mo 0.008239 -3.060692 -0.133927
Mo 1.605939 -1.715914 1.794132
Mo -3.092948 -2.872093 -0.243321
Mo -1.515229 -1.550912 1.758835
Mo 0.248154 0.224536 3.125229
Ni 1.662629 1.478636 -1.356632
Ni 3.028263 0.148919 2.996728
Mo -1.717391 1.340335 -1.507845
Ni -0.070773 2.968856 -3.059834
Ni 1.475189 -1.539779 -1.650806
Ni -2.968785 -3.089731 -3.012132
Ni -1.382370 -1.351397 -1.604502
