16
Atomic coordinates from LammpsImplicitDer
Ni 0.117842 0.010342 0.221435
Ni 1.645481 1.799520 1.411002
Ni 3.128089 -0.137914 0.209306
Mo -1.671061 1.586649 1.554125
Mo 0.007722 -3.059520 -0.133061
Mo 1.606554 -1.716636 1.795058
Mo -3.092718 -2.871184 -0.244780
Mo -1.515263 -1.552071 1.758881
Mo 0.246660 0.223806 3.123201
Ni 1.660007 1.477579 -1.356892
Ni 3.030054 0.150267 2.996152
Mo -1.715931 1.340231 -1.506526
Ni -0.070877 2.968696 -3.060015
Ni 1.474580 -1.538190 -1.650111
Ni -2.968691 -3.090206 -3.012311
Ni -1.381645 -1.350673 -1.604563
