16
Atomic coordinates from LammpsImplicitDer
Ni 0.117637 0.012373 0.219203
Ni 1.645826 1.798736 1.411398
Ni 3.128055 -0.137589 0.209388
Mo -1.671570 1.586305 1.555100
Mo 0.008200 -3.060616 -0.133845
Mo 1.606003 -1.715935 1.794190
Mo -3.092940 -2.872014 -0.243468
Mo -1.515220 -1.551003 1.758841
Mo 0.248007 0.224443 3.125101
Ni 1.662405 1.478574 -1.356684
Ni 3.028417 0.149023 2.996690
Mo -1.717278 1.340327 -1.507742
Ni -0.070788 2.968817 -3.059852
Ni 1.475138 -1.539636 -1.650749
Ni -2.968794 -3.089778 -3.012162
Ni -1.382293 -1.351333 -1.604510
