16
Atomic coordinates from LammpsImplicitDer
Ni 0.117763 0.010842 0.220945
Ni 1.645603 1.799373 1.411058
Ni 3.128109 -0.137876 0.209361
Mo -1.671180 1.586580 1.554373
Mo 0.007863 -3.059866 -0.133265
Mo 1.606438 -1.716360 1.794794
Mo -3.092812 -2.871389 -0.244504
Mo -1.515225 -1.551774 1.758882
Mo 0.246982 0.223914 3.123810
Ni 1.660653 1.477877 -1.356898
Ni 3.029615 0.149930 2.996306
Mo -1.716335 1.340241 -1.506866
Ni -0.070858 2.968671 -3.059952
Ni 1.474742 -1.538515 -1.650281
Ni -2.968773 -3.090116 -3.012299
Ni -1.381781 -1.350835 -1.604564
