16
Atomic coordinates from LammpsImplicitDer
Ni 0.117671 0.011734 0.219970
Ni 1.645754 1.799031 1.411231
Ni 3.128096 -0.137732 0.209397
Mo -1.671405 1.586429 1.554802
Mo 0.008072 -3.060348 -0.133608
Mo 1.606196 -1.716050 1.794410
Mo -3.092909 -2.871755 -0.243928
Mo -1.515205 -1.551306 1.758865
Mo 0.247571 0.224190 3.124645
Ni 1.661701 1.478319 -1.356809
Ni 3.028899 0.149381 2.996545
Mo -1.716924 1.340284 -1.507401
Ni -0.070819 2.968722 -3.059884
Ni 1.474987 -1.539150 -1.650558
Ni -2.968817 -3.089927 -3.012237
Ni -1.382064 -1.351125 -1.604539
