16
Atomic coordinates from LammpsImplicitDer
Ni 0.117602 0.010759 0.220993
Ni 1.645474 1.799259 1.411264
Ni 3.128190 -0.137693 0.209191
Mo -1.670936 1.586592 1.554374
Mo 0.007846 -3.059831 -0.133035
Mo 1.606485 -1.716170 1.794566
Mo -3.092823 -2.871663 -0.244304
Mo -1.515271 -1.551840 1.758644
Mo 0.246640 0.223588 3.123731
Ni 1.660350 1.477889 -1.357083
Ni 3.029896 0.149901 2.996374
Mo -1.715951 1.340501 -1.506831
Ni -0.070761 2.968902 -3.060034
Ni 1.474843 -1.538389 -1.650038
Ni -2.968840 -3.090150 -3.012466
Ni -1.381942 -1.350958 -1.604445
