16
Atomic coordinates from LammpsImplicitDer
Ni 0.117684 0.011569 0.220160
Ni 1.645731 1.799101 1.411193
Ni 3.128103 -0.137765 0.209396
Mo -1.671363 1.586459 1.554723
Mo 0.008037 -3.060269 -0.133546
Mo 1.606244 -1.716093 1.794474
Mo -3.092896 -2.871687 -0.244042
Mo -1.515205 -1.551388 1.758870
Mo 0.247461 0.224132 3.124510
Ni 1.661515 1.478244 -1.356834
Ni 3.029027 0.149478 2.996504
Mo -1.716826 1.340274 -1.507308
Ni -0.070827 2.968704 -3.059894
Ni 1.474945 -1.539027 -1.650508
Ni -2.968817 -3.089965 -3.012252
Ni -1.382008 -1.351071 -1.604546
