16
Atomic coordinates from LammpsImplicitDer
Ni 0.118885 0.005960 0.220629
Ni 1.637653 1.793837 1.416718
Ni 3.128439 -0.128551 0.203104
Mo -1.670463 1.584276 1.552640
Mo 0.002177 -3.043945 -0.127279
Mo 1.604868 -1.731975 1.801435
Mo -3.084121 -2.870566 -0.239793
Mo -1.519397 -1.561684 1.757072
Mo 0.242082 0.226498 3.096225
Ni 1.640232 1.470789 -1.350645
Ni 3.043827 0.155648 2.992455
Mo -1.698980 1.343255 -1.497288
Ni -0.070538 2.977914 -3.067569
Ni 1.468865 -1.541757 -1.642126
Ni -2.958224 -3.087249 -3.014459
Ni -1.384494 -1.351758 -1.600222
