16
Atomic coordinates from LammpsImplicitDer
Ni 0.117682 0.011596 0.220128
Ni 1.645735 1.799090 1.411199
Ni 3.128102 -0.137760 0.209396
Mo -1.671370 1.586454 1.554737
Mo 0.008043 -3.060283 -0.133557
Mo 1.606236 -1.716085 1.794463
Mo -3.092899 -2.871699 -0.244023
Mo -1.515205 -1.551374 1.758869
Mo 0.247479 0.224141 3.124533
Ni 1.661546 1.478257 -1.356830
Ni 3.029005 0.149462 2.996511
Mo -1.716842 1.340275 -1.507324
Ni -0.070826 2.968707 -3.059892
Ni 1.474952 -1.539048 -1.650516
Ni -2.968817 -3.089958 -3.012250
Ni -1.382018 -1.351080 -1.604545
