16
Atomic coordinates from LammpsImplicitDer
Ni 0.117526 0.011547 0.220150
Ni 1.645626 1.798980 1.411390
Ni 3.128180 -0.137592 0.209244
Mo -1.671149 1.586462 1.554753
Mo 0.008038 -3.060277 -0.133357
Mo 1.606275 -1.715883 1.794231
Mo -3.092918 -2.871965 -0.243826
Mo -1.515243 -1.551415 1.758649
Mo 0.247180 0.223840 3.124509
Ni 1.661309 1.478289 -1.357009
Ni 3.029236 0.149412 2.996585
Mo -1.716517 1.340516 -1.507314
Ni -0.070733 2.968914 -3.059960
Ni 1.475060 -1.538943 -1.650300
Ni -2.968892 -3.089988 -3.012408
Ni -1.382174 -1.351202 -1.604436
