16
Atomic coordinates from LammpsImplicitDer
Ni 0.117636 0.012492 0.219051
Ni 1.645836 1.798676 1.411431
Ni 3.128042 -0.137561 0.209385
Mo -1.671602 1.586281 1.555155
Mo 0.008223 -3.060662 -0.133894
Mo 1.605965 -1.715922 1.794155
Mo -3.092945 -2.872061 -0.243381
Mo -1.515225 -1.550948 1.758838
Mo 0.248095 0.224498 3.125178
Ni 1.662539 1.478612 -1.356653
Ni 3.028325 0.148961 2.996713
Mo -1.717346 1.340332 -1.507803
Ni -0.070780 2.968840 -3.059842
Ni 1.475168 -1.539722 -1.650783
Ni -2.968789 -3.089750 -3.012145
Ni -1.382338 -1.351371 -1.604505
