16
Atomic coordinates from LammpsImplicitDer
Ni 0.118030 0.009530 0.222125
Ni 1.645205 1.799667 1.410990
Ni 3.128003 -0.137884 0.209150
Mo -1.670888 1.586725 1.553709
Mo 0.007443 -3.058793 -0.132711
Mo 1.606703 -1.717296 1.795585
Mo -3.092476 -2.870847 -0.245138
Mo -1.515380 -1.552630 1.758863
Mo 0.246156 0.223727 3.121917
Ni 1.658829 1.476995 -1.356767
Ni 3.030849 0.150866 2.995860
Mo -1.715130 1.340239 -1.505889
Ni -0.070904 2.968846 -3.060177
Ni 1.474270 -1.537719 -1.649791
Ni -2.968438 -3.090318 -3.012296
Ni -1.381468 -1.350414 -1.604531
