16
Atomic coordinates from LammpsImplicitDer
Ni 0.117508 0.011835 0.219820
Ni 1.645668 1.798861 1.411453
Ni 3.128167 -0.137539 0.209250
Mo -1.671227 1.586410 1.554888
Mo 0.008099 -3.060412 -0.133468
Mo 1.606191 -1.715815 1.794126
Mo -3.092938 -2.872076 -0.243633
Mo -1.515243 -1.551273 1.758645
Mo 0.247378 0.223949 3.124740
Ni 1.661638 1.478416 -1.356961
Ni 3.029010 0.149246 2.996654
Mo -1.716696 1.340528 -1.507474
Ni -0.070722 2.968940 -3.059942
Ni 1.475131 -1.539158 -1.650392
Ni -2.968889 -3.089923 -3.012377
Ni -1.382269 -1.351293 -1.604427
