16
Atomic coordinates from LammpsImplicitDer
Ni 0.117758 0.009838 0.221837
Ni 1.645199 1.799465 1.411225
Ni 3.128137 -0.137695 0.209038
Mo -1.670701 1.586702 1.553915
Mo 0.007561 -3.059113 -0.132626
Mo 1.606681 -1.716760 1.795073
Mo -3.092606 -2.871316 -0.244738
Mo -1.515373 -1.552427 1.758608
Mo 0.246022 0.223404 3.122461
Ni 1.659071 1.477296 -1.357033
Ni 3.030771 0.150540 2.996079
Mo -1.715095 1.340525 -1.506164
Ni -0.070785 2.969030 -3.060191
Ni 1.474532 -1.537815 -1.649681
Ni -2.968636 -3.090299 -3.012488
Ni -1.381733 -1.350680 -1.604414
