16
Atomic coordinates from LammpsImplicitDer
Ni 0.117736 0.011052 0.220726
Ni 1.645645 1.799301 1.411091
Ni 3.128111 -0.137850 0.209376
Mo -1.671232 1.586547 1.554475
Mo 0.007917 -3.059994 -0.133348
Mo 1.606385 -1.716269 1.794695
Mo -3.092842 -2.871475 -0.244377
Mo -1.515215 -1.551658 1.758880
Mo 0.247120 0.223970 3.124032
Ni 1.660910 1.477990 -1.356887
Ni 3.029440 0.149795 2.996366
Mo -1.716487 1.340248 -1.507000
Ni -0.070849 2.968672 -3.059932
Ni 1.474804 -1.538659 -1.650348
Ni -2.968794 -3.090074 -3.012289
Ni -1.381843 -1.350903 -1.604561
