16
Atomic coordinates from LammpsImplicitDer
Ni 0.117716 0.011228 0.220538
Ni 1.645677 1.799237 1.411122
Ni 3.128110 -0.137824 0.209385
Mo -1.671277 1.586518 1.554560
Mo 0.007959 -3.060093 -0.133416
Mo 1.606338 -1.716201 1.794616
Mo -3.092864 -2.871547 -0.244267
Mo -1.515209 -1.551563 1.758878
Mo 0.247235 0.224022 3.124205
Ni 1.661120 1.478081 -1.356873
Ni 3.029297 0.149685 2.996415
Mo -1.716608 1.340255 -1.507108
Ni -0.070842 2.968679 -3.059917
Ni 1.474854 -1.538782 -1.650403
Ni -2.968806 -3.090038 -3.012278
Ni -1.381898 -1.350960 -1.604557
