16
Atomic coordinates from LammpsImplicitDer
Ni 0.117728 0.011125 0.220648
Ni 1.645659 1.799275 1.411104
Ni 3.128111 -0.137840 0.209380
Mo -1.671251 1.586535 1.554511
Mo 0.007935 -3.060036 -0.133377
Mo 1.606365 -1.716239 1.794661
Mo -3.092852 -2.871506 -0.244332
Mo -1.515212 -1.551618 1.758879
Mo 0.247168 0.223991 3.124106
Ni 1.660998 1.478029 -1.356882
Ni 3.029380 0.149749 2.996387
Mo -1.716538 1.340251 -1.507045
Ni -0.070846 2.968675 -3.059925
Ni 1.474825 -1.538710 -1.650371
Ni -2.968799 -3.090059 -3.012284
Ni -1.381866 -1.350927 -1.604559
