16
Atomic coordinates from LammpsImplicitDer
Ni 0.117672 0.010287 0.221447
Ni 1.645349 1.799383 1.411227
Ni 3.128173 -0.137713 0.209126
Mo -1.670813 1.586655 1.554141
Mo 0.007710 -3.059495 -0.132831
Mo 1.606593 -1.716432 1.794808
Mo -3.092729 -2.871484 -0.244546
Mo -1.515312 -1.552125 1.758630
Mo 0.246321 0.223477 3.123138
Ni 1.659721 1.477604 -1.357079
Ni 3.030327 0.150219 2.996231
Mo -1.715543 1.340507 -1.506506
Ni -0.070775 2.968945 -3.060102
Ni 1.474693 -1.538084 -1.649864
Ni -2.968759 -3.090233 -3.012484
Ni -1.381825 -1.350814 -1.604436
