16
Atomic coordinates from LammpsImplicitDer
Ni 0.117489 0.012291 0.219273
Ni 1.645722 1.798655 1.411566
Ni 3.128135 -0.137443 0.209248
Mo -1.671352 1.586322 1.555100
Mo 0.008190 -3.060603 -0.133643
Mo 1.606052 -1.715741 1.793977
Mo -3.092959 -2.872252 -0.243311
Mo -1.515253 -1.551056 1.758635
Mo 0.247699 0.224139 3.125064
Ni 1.662146 1.478598 -1.356866
Ni 3.028659 0.148993 2.996754
Mo -1.716958 1.340551 -1.507717
Ni -0.070704 2.969001 -3.059916
Ni 1.475234 -1.539509 -1.650536
Ni -2.968869 -3.089815 -3.012319
Ni -1.382426 -1.351436 -1.604410
