16
Atomic coordinates from LammpsImplicitDer
Ni 0.117864 0.010228 0.221540
Ni 1.645449 1.799547 1.410994
Ni 3.128081 -0.137917 0.209290
Mo -1.671035 1.586662 1.554068
Mo 0.007687 -3.059431 -0.133014
Mo 1.606578 -1.716711 1.795123
Mo -3.092691 -2.871137 -0.244837
Mo -1.515274 -1.552143 1.758880
Mo 0.246588 0.223787 3.123045
Ni 1.659853 1.477506 -1.356884
Ni 3.030159 0.150347 2.996114
Mo -1.715831 1.340230 -1.506444
Ni -0.070881 2.968709 -3.060033
Ni 1.474541 -1.538120 -1.650070
Ni -2.968665 -3.090224 -3.012312
Ni -1.381617 -1.350637 -1.604561
