16
Atomic coordinates from LammpsImplicitDer
Ni 0.117489 0.012601 0.218882
Ni 1.645751 1.798505 1.411647
Ni 3.128099 -0.137375 0.209245
Mo -1.671438 1.586258 1.555241
Mo 0.008250 -3.060719 -0.133774
Mo 1.605953 -1.715713 1.793893
Mo -3.092971 -2.872366 -0.243092
Mo -1.515265 -1.550915 1.758631
Mo 0.247929 0.224288 3.125262
Ni 1.662496 1.478694 -1.356783
Ni 3.028418 0.148832 2.996812
Mo -1.717138 1.340559 -1.507875
Ni -0.070684 2.969055 -3.059888
Ni 1.475309 -1.539734 -1.650630
Ni -2.968853 -3.089743 -3.012269
Ni -1.382540 -1.351531 -1.604400
