16
Atomic coordinates from LammpsImplicitDer
Ni 0.117651 0.010415 0.221327
Ni 1.645386 1.799353 1.411234
Ni 3.128179 -0.137711 0.209147
Mo -1.670846 1.586639 1.554205
Mo 0.007749 -3.059593 -0.132888
Mo 1.606565 -1.716353 1.794738
Mo -3.092758 -2.871533 -0.244484
Mo -1.515299 -1.552045 1.758635
Mo 0.246408 0.223504 3.123311
Ni 1.659898 1.477685 -1.357084
Ni 3.030207 0.150130 2.996271
Mo -1.715660 1.340504 -1.506597
Ni -0.070771 2.968929 -3.060081
Ni 1.474735 -1.538165 -1.649913
Ni -2.968785 -3.090212 -3.012480
Ni -1.381855 -1.350853 -1.604440
