16
Atomic coordinates from LammpsImplicitDer
Ni 0.117884 0.010130 0.221629
Ni 1.645419 1.799570 1.410989
Ni 3.128073 -0.137918 0.209274
Mo -1.671012 1.586674 1.554018
Mo 0.007656 -3.059352 -0.132972
Mo 1.606598 -1.716780 1.795182
Mo -3.092666 -2.871096 -0.244885
Mo -1.515286 -1.552207 1.758878
Mo 0.246526 0.223772 3.122905
Ni 1.659716 1.477440 -1.356875
Ni 3.030251 0.150417 2.996081
Mo -1.715741 1.340230 -1.506371
Ni -0.070885 2.968722 -3.060050
Ni 1.474505 -1.538060 -1.650033
Ni -2.968641 -3.090239 -3.012311
Ni -1.381593 -1.350605 -1.604559
