16
Atomic coordinates from LammpsImplicitDer
Ni 0.117675 0.011679 0.220033
Ni 1.645747 1.799055 1.411218
Ni 3.128099 -0.137743 0.209397
Mo -1.671391 1.586439 1.554776
Mo 0.008061 -3.060322 -0.133587
Mo 1.606212 -1.716064 1.794431
Mo -3.092905 -2.871733 -0.243966
Mo -1.515205 -1.551333 1.758866
Mo 0.247535 0.224170 3.124601
Ni 1.661640 1.478294 -1.356818
Ni 3.028941 0.149413 2.996531
Mo -1.716892 1.340280 -1.507370
Ni -0.070822 2.968716 -3.059887
Ni 1.474973 -1.539109 -1.650541
Ni -2.968817 -3.089940 -3.012242
Ni -1.382046 -1.351107 -1.604541
