16
Atomic coordinates from LammpsImplicitDer
Ni 0.117491 0.012702 0.218751
Ni 1.645758 1.798453 1.411675
Ni 3.128085 -0.137352 0.209243
Mo -1.671465 1.586236 1.555288
Mo 0.008271 -3.060755 -0.133818
Mo 1.605920 -1.715706 1.793866
Mo -3.092976 -2.872405 -0.243020
Mo -1.515271 -1.550870 1.758628
Mo 0.248005 0.224338 3.125324
Ni 1.662611 1.478720 -1.356755
Ni 3.028338 0.148781 2.996829
Mo -1.717198 1.340561 -1.507927
Ni -0.070674 2.969075 -3.059875
Ni 1.475336 -1.539801 -1.650659
Ni -2.968849 -3.089720 -3.012251
Ni -1.382579 -1.351562 -1.604397
