16
Atomic coordinates from LammpsImplicitDer
Ni 0.117496 0.012060 0.219554
Ni 1.645696 1.798761 1.411507
Ni 3.128153 -0.137493 0.209250
Mo -1.671288 1.586367 1.554993
Mo 0.008145 -3.060509 -0.133554
Mo 1.606123 -1.715773 1.794049
Mo -3.092949 -2.872164 -0.243475
Mo -1.515247 -1.551164 1.758640
Mo 0.247535 0.224039 3.124906
Ni 1.661890 1.478510 -1.356917
Ni 3.028836 0.149119 2.996705
Mo -1.716827 1.340540 -1.507596
Ni -0.070714 2.968968 -3.059930
Ni 1.475183 -1.539331 -1.650463
Ni -2.968882 -3.089870 -3.012350
Ni -1.382346 -1.351364 -1.604419
