16
Atomic coordinates from LammpsImplicitDer
Ni 0.117488 0.012509 0.219001
Ni 1.645743 1.798550 1.411622
Ni 3.128111 -0.137396 0.209246
Mo -1.671413 1.586277 1.555199
Mo 0.008232 -3.060685 -0.133734
Mo 1.605982 -1.715721 1.793917
Mo -3.092967 -2.872332 -0.243157
Mo -1.515261 -1.550956 1.758632
Mo 0.247861 0.224243 3.125204
Ni 1.662392 1.478668 -1.356809
Ni 3.028489 0.148879 2.996795
Mo -1.717085 1.340556 -1.507828
Ni -0.070691 2.969037 -3.059898
Ni 1.475286 -1.539669 -1.650603
Ni -2.968858 -3.089764 -3.012284
Ni -1.382505 -1.351502 -1.604403
