16
Atomic coordinates from LammpsImplicitDer
Ni 0.117616 0.010651 0.221100
Ni 1.645448 1.799290 1.411253
Ni 3.128188 -0.137701 0.209179
Mo -1.670907 1.586608 1.554321
Mo 0.007817 -3.059760 -0.132990
Mo 1.606511 -1.716223 1.794618
Mo -3.092804 -2.871622 -0.244362
Mo -1.515279 -1.551902 1.758642
Mo 0.246567 0.223560 3.123605
Ni 1.660211 1.477827 -1.357086
Ni 3.029992 0.149972 2.996343
Mo -1.715863 1.340501 -1.506759
Ni -0.070764 2.968908 -3.060048
Ni 1.474811 -1.538317 -1.649999
Ni -2.968826 -3.090170 -3.012471
Ni -1.381914 -1.350925 -1.604444
