16
Atomic coordinates from LammpsImplicitDer
Ni 0.117794 0.009683 0.221961
Ni 1.645139 1.799484 1.411233
Ni 3.128119 -0.137678 0.209000
Mo -1.670664 1.586714 1.553836
Mo 0.007505 -3.058964 -0.132553
Mo 1.606708 -1.716894 1.795174
Mo -3.092555 -2.871259 -0.244795
Mo -1.515400 -1.552539 1.758598
Mo 0.245920 0.223388 3.122198
Ni 1.658833 1.477179 -1.357006
Ni 3.030934 0.150656 2.996023
Mo -1.714925 1.340534 -1.506038
Ni -0.070788 2.969071 -3.060228
Ni 1.474472 -1.537728 -1.649612
Ni -2.968581 -3.090319 -3.012487
Ni -1.381706 -1.350634 -1.604403
