16
Atomic coordinates from LammpsImplicitDer
Ni 0.117539 0.011378 0.220338
Ni 1.645599 1.799046 1.411357
Ni 3.128186 -0.137620 0.209238
Mo -1.671103 1.586492 1.554672
Mo 0.008000 -3.060192 -0.133290
Mo 1.606322 -1.715931 1.794296
Mo -3.092903 -2.871900 -0.243935
Mo -1.515245 -1.551502 1.758650
Mo 0.247063 0.223780 3.124361
Ni 1.661111 1.478210 -1.357032
Ni 3.029373 0.149513 2.996543
Mo -1.716406 1.340510 -1.507216
Ni -0.070740 2.968904 -3.059973
Ni 1.475017 -1.538820 -1.650246
Ni -2.968888 -3.090025 -3.012423
Ni -1.382121 -1.351150 -1.604440
