16
Atomic coordinates from LammpsImplicitDer
Ni 0.117857 0.010261 0.221510
Ni 1.645458 1.799540 1.410996
Ni 3.128083 -0.137917 0.209295
Mo -1.671042 1.586659 1.554084
Mo 0.007697 -3.059457 -0.133027
Mo 1.606572 -1.716689 1.795104
Mo -3.092699 -2.871151 -0.244821
Mo -1.515271 -1.552122 1.758880
Mo 0.246609 0.223792 3.123091
Ni 1.659897 1.477527 -1.356887
Ni 3.030129 0.150324 2.996125
Mo -1.715860 1.340230 -1.506467
Ni -0.070880 2.968705 -3.060028
Ni 1.474552 -1.538140 -1.650082
Ni -2.968673 -3.090219 -3.012312
Ni -1.381625 -1.350647 -1.604562
