16
Atomic coordinates from LammpsImplicitDer
Ni 0.117806 0.010548 0.221238
Ni 1.645535 1.799464 1.411021
Ni 3.128100 -0.137903 0.209332
Mo -1.671109 1.586622 1.554228
Mo 0.007783 -3.059671 -0.133147
Mo 1.606508 -1.716511 1.794944
Mo -3.092761 -2.871269 -0.244670
Mo -1.515244 -1.551945 1.758882
Mo 0.246792 0.223846 3.123467
Ni 1.660280 1.477707 -1.356900
Ni 3.029869 0.150125 2.996218
Mo -1.716105 1.340234 -1.506671
Ni -0.070870 2.968680 -3.059986
Ni 1.474649 -1.538322 -1.650183
Ni -2.968731 -3.090170 -3.012308
Ni -1.381699 -1.350740 -1.604565
