16
Atomic coordinates from LammpsImplicitDer
Ni 0.117789 0.010658 0.221131
Ni 1.645561 1.799431 1.411034
Ni 3.128104 -0.137894 0.209344
Mo -1.671135 1.586607 1.554282
Mo 0.007814 -3.059746 -0.133191
Mo 1.606483 -1.716452 1.794886
Mo -3.092782 -2.871314 -0.244610
Mo -1.515236 -1.551880 1.758883
Mo 0.246863 0.223869 3.123600
Ni 1.660421 1.477772 -1.356901
Ni 3.029773 0.150052 2.996251
Mo -1.716193 1.340236 -1.506745
Ni -0.070865 2.968675 -3.059973
Ni 1.474685 -1.538393 -1.650220
Ni -2.968748 -3.090150 -3.012305
Ni -1.381729 -1.350775 -1.604565
