16
Atomic coordinates from LammpsImplicitDer
Ni 0.117653 0.011989 0.219671
Ni 1.645786 1.798917 1.411296
Ni 3.128084 -0.137677 0.209395
Mo -1.671470 1.586381 1.554922
Mo 0.008125 -3.060461 -0.133701
Mo 1.606121 -1.715994 1.794316
Mo -3.092924 -2.871860 -0.243747
Mo -1.515209 -1.551182 1.758855
Mo 0.247742 0.224284 3.124838
Ni 1.661984 1.478428 -1.356766
Ni 3.028706 0.149234 2.996606
Mo -1.717069 1.340302 -1.507540
Ni -0.070808 2.968755 -3.059871
Ni 1.475048 -1.539343 -1.650634
Ni -2.968812 -3.089869 -3.012211
Ni -1.382154 -1.351208 -1.604527
