16
Atomic coordinates from LammpsImplicitDer
Ni 0.117778 0.009752 0.221907
Ni 1.645167 1.799477 1.411229
Ni 3.128127 -0.137686 0.209017
Mo -1.670681 1.586709 1.553871
Mo 0.007530 -3.059031 -0.132586
Mo 1.606696 -1.716833 1.795128
Mo -3.092578 -2.871285 -0.244770
Mo -1.515388 -1.552488 1.758602
Mo 0.245966 0.223395 3.122317
Ni 1.658940 1.477232 -1.357019
Ni 3.030861 0.150604 2.996048
Mo -1.715002 1.340530 -1.506095
Ni -0.070787 2.969052 -3.060211
Ni 1.474499 -1.537767 -1.649643
Ni -2.968606 -3.090310 -3.012488
Ni -1.381718 -1.350654 -1.604408
