16
Atomic coordinates from LammpsImplicitDer
Ni 0.117645 0.012120 0.219514
Ni 1.645800 1.798857 1.411331
Ni 3.128076 -0.137647 0.209393
Mo -1.671503 1.586356 1.554983
Mo 0.008151 -3.060516 -0.133748
Mo 1.606081 -1.715970 1.794270
Mo -3.092930 -2.871914 -0.243652
Mo -1.515212 -1.551120 1.758849
Mo 0.247830 0.224335 3.124931
Ni 1.662127 1.478481 -1.356741
Ni 3.028608 0.149160 2.996636
Mo -1.717140 1.340312 -1.507610
Ni -0.070802 2.968775 -3.059866
Ni 1.475079 -1.539444 -1.650673
Ni -2.968807 -3.089838 -3.012196
Ni -1.382201 -1.351251 -1.604521
