16
Atomic coordinates from LammpsImplicitDer
Ni 0.117751 0.009872 0.221809
Ni 1.645212 1.799461 1.411224
Ni 3.128140 -0.137698 0.209045
Mo -1.670709 1.586699 1.553933
Mo 0.007573 -3.059144 -0.132642
Mo 1.606675 -1.716732 1.795051
Mo -3.092617 -2.871329 -0.244725
Mo -1.515368 -1.552403 1.758610
Mo 0.246045 0.223409 3.122517
Ni 1.659123 1.477321 -1.357038
Ni 3.030736 0.150515 2.996091
Mo -1.715131 1.340523 -1.506191
Ni -0.070784 2.969022 -3.060183
Ni 1.474545 -1.537835 -1.649695
Ni -2.968647 -3.090295 -3.012488
Ni -1.381739 -1.350690 -1.604416
