16
Atomic coordinates from LammpsImplicitDer
Ni 0.117871 0.009382 0.222186
Ni 1.645008 1.799506 1.411262
Ni 3.128078 -0.137630 0.208915
Mo -1.670595 1.586732 1.553681
Mo 0.007386 -3.058647 -0.132407
Mo 1.606753 -1.717189 1.795384
Mo -3.092439 -2.871148 -0.244889
Mo -1.515462 -1.552771 1.758575
Mo 0.245722 0.223371 3.121636
Ni 1.658345 1.476937 -1.356935
Ni 3.031266 0.150889 2.995907
Mo -1.714567 1.340557 -1.505778
Ni -0.070792 2.969170 -3.060311
Ni 1.474348 -1.537566 -1.649468
Ni -2.968456 -3.090351 -3.012482
Ni -1.381662 -1.350547 -1.604374
