16
Atomic coordinates from LammpsImplicitDer
Ni 0.117658 0.010367 0.221372
Ni 1.645373 1.799364 1.411231
Ni 3.128177 -0.137712 0.209139
Mo -1.670833 1.586646 1.554181
Mo 0.007735 -3.059557 -0.132866
Mo 1.606576 -1.716382 1.794764
Mo -3.092747 -2.871515 -0.244507
Mo -1.515304 -1.552075 1.758633
Mo 0.246375 0.223493 3.123247
Ni 1.659832 1.477655 -1.357083
Ni 3.030251 0.150163 2.996256
Mo -1.715617 1.340505 -1.506563
Ni -0.070772 2.968934 -3.060089
Ni 1.474720 -1.538134 -1.649895
Ni -2.968776 -3.090220 -3.012482
Ni -1.381844 -1.350838 -1.604439
