16
Atomic coordinates from LammpsImplicitDer
Ni 0.117500 0.011981 0.219647
Ni 1.645686 1.798796 1.411488
Ni 3.128158 -0.137509 0.209250
Mo -1.671267 1.586382 1.554956
Mo 0.008129 -3.060476 -0.133524
Mo 1.606147 -1.715786 1.794076
Mo -3.092946 -2.872133 -0.243531
Mo -1.515245 -1.551202 1.758642
Mo 0.247480 0.224007 3.124850
Ni 1.661802 1.478478 -1.356933
Ni 3.028896 0.149163 2.996687
Mo -1.716782 1.340535 -1.507554
Ni -0.070717 2.968958 -3.059934
Ni 1.475165 -1.539270 -1.650438
Ni -2.968885 -3.089889 -3.012360
Ni -1.382318 -1.351339 -1.604422
