16
Atomic coordinates from LammpsImplicitDer
Ni 0.117636 0.012562 0.218962
Ni 1.645841 1.798641 1.411451
Ni 3.128033 -0.137544 0.209384
Mo -1.671620 1.586266 1.555188
Mo 0.008237 -3.060687 -0.133923
Mo 1.605942 -1.715916 1.794136
Mo -3.092948 -2.872088 -0.243330
Mo -1.515229 -1.550917 1.758836
Mo 0.248145 0.224531 3.125222
Ni 1.662617 1.478632 -1.356635
Ni 3.028272 0.148925 2.996726
Mo -1.717385 1.340335 -1.507839
Ni -0.070774 2.968854 -3.059835
Ni 1.475186 -1.539771 -1.650803
Ni -2.968786 -3.089734 -3.012134
Ni -1.382365 -1.351393 -1.604503
