16
Atomic coordinates from LammpsImplicitDer
Ni 0.117639 0.012261 0.219342
Ni 1.645815 1.798790 1.411369
Ni 3.128065 -0.137614 0.209390
Mo -1.671540 1.586328 1.555049
Mo 0.008178 -3.060573 -0.133801
Mo 1.606038 -1.715948 1.794224
Mo -3.092935 -2.871971 -0.243549
Mo -1.515216 -1.551054 1.758844
Mo 0.247928 0.224393 3.125027
Ni 1.662281 1.478535 -1.356711
Ni 3.028502 0.149083 2.996667
Mo -1.717216 1.340321 -1.507684
Ni -0.070794 2.968798 -3.059859
Ni 1.475112 -1.539552 -1.650715
Ni -2.968800 -3.089804 -3.012178
Ni -1.382252 -1.351297 -1.604515
