16
Atomic coordinates from LammpsImplicitDer
Ni 0.117715 0.011242 0.220522
Ni 1.645680 1.799231 1.411125
Ni 3.128110 -0.137822 0.209386
Mo -1.671280 1.586516 1.554567
Mo 0.007963 -3.060101 -0.133422
Mo 1.606334 -1.716196 1.794610
Mo -3.092865 -2.871553 -0.244258
Mo -1.515209 -1.551556 1.758877
Mo 0.247245 0.224026 3.124219
Ni 1.661137 1.478088 -1.356872
Ni 3.029285 0.149676 2.996419
Mo -1.716617 1.340256 -1.507116
Ni -0.070841 2.968680 -3.059916
Ni 1.474858 -1.538792 -1.650408
Ni -2.968806 -3.090035 -3.012277
Ni -1.381902 -1.350965 -1.604556
