16
Atomic coordinates from LammpsImplicitDer
Ni 0.117718 0.011213 0.220554
Ni 1.645675 1.799242 1.411120
Ni 3.128110 -0.137827 0.209385
Mo -1.671273 1.586521 1.554553
Mo 0.007956 -3.060085 -0.133411
Mo 1.606342 -1.716207 1.794622
Mo -3.092862 -2.871541 -0.244276
Mo -1.515210 -1.551571 1.758878
Mo 0.247226 0.224017 3.124192
Ni 1.661103 1.478073 -1.356875
Ni 3.029308 0.149694 2.996411
Mo -1.716598 1.340255 -1.507099
Ni -0.070842 2.968678 -3.059918
Ni 1.474850 -1.538771 -1.650399
Ni -2.968805 -3.090041 -3.012279
Ni -1.381893 -1.350955 -1.604557
