16
Atomic coordinates from LammpsImplicitDer
Ni 0.117709 0.011300 0.220459
Ni 1.645689 1.799209 1.411136
Ni 3.128109 -0.137813 0.209388
Mo -1.671295 1.586506 1.554595
Mo 0.007976 -3.060132 -0.133444
Mo 1.606319 -1.716176 1.794585
Mo -3.092871 -2.871577 -0.244220
Mo -1.515208 -1.551526 1.758876
Mo 0.247283 0.224044 3.124273
Ni 1.661205 1.478116 -1.356866
Ni 3.029239 0.149641 2.996434
Mo -1.716655 1.340259 -1.507151
Ni -0.070839 2.968683 -3.059912
Ni 1.474873 -1.538833 -1.650426
Ni -2.968809 -3.090023 -3.012273
Ni -1.381920 -1.350983 -1.604555
