16
Atomic coordinates from LammpsImplicitDer
Ni 0.118609 0.006136 0.220870
Ni 1.637574 1.793828 1.416795
Ni 3.129225 -0.128096 0.202881
Mo -1.671132 1.584068 1.552670
Mo 0.001443 -3.042948 -0.126681
Mo 1.604409 -1.733606 1.802182
Mo -3.082832 -2.869723 -0.239344
Mo -1.519336 -1.562292 1.757497
Mo 0.242169 0.227414 3.094177
Ni 1.638935 1.471586 -1.349884
Ni 3.044575 0.155828 2.992157
Mo -1.698069 1.343291 -1.496483
Ni -0.071460 2.977677 -3.068888
Ni 1.467247 -1.544432 -1.642498
Ni -2.956467 -3.086349 -3.014547
Ni -1.384077 -1.351689 -1.600005
