16
Atomic coordinates from LammpsImplicitDer
Ni 0.117489 0.012253 0.219320
Ni 1.645718 1.798672 1.411557
Ni 3.128138 -0.137451 0.209248
Mo -1.671341 1.586329 1.555082
Mo 0.008182 -3.060588 -0.133628
Mo 1.606064 -1.715745 1.793988
Mo -3.092957 -2.872238 -0.243338
Mo -1.515252 -1.551073 1.758635
Mo 0.247671 0.224122 3.125039
Ni 1.662104 1.478585 -1.356875
Ni 3.028688 0.149013 2.996747
Mo -1.716936 1.340550 -1.507697
Ni -0.070706 2.968996 -3.059919
Ni 1.475226 -1.539481 -1.650524
Ni -2.968872 -3.089824 -3.012324
Ni -1.382413 -1.351424 -1.604411
