16
Atomic coordinates from LammpsImplicitDer
Ni 0.117489 0.012623 0.218853
Ni 1.645752 1.798493 1.411653
Ni 3.128096 -0.137370 0.209245
Mo -1.671444 1.586253 1.555252
Mo 0.008255 -3.060727 -0.133784
Mo 1.605945 -1.715712 1.793887
Mo -3.092972 -2.872375 -0.243076
Mo -1.515267 -1.550905 1.758630
Mo 0.247946 0.224299 3.125276
Ni 1.662522 1.478700 -1.356777
Ni 3.028400 0.148821 2.996816
Mo -1.717152 1.340559 -1.507887
Ni -0.070682 2.969059 -3.059885
Ni 1.475315 -1.539749 -1.650637
Ni -2.968852 -3.089738 -3.012265
Ni -1.382549 -1.351538 -1.604400
