16
Atomic coordinates from LammpsImplicitDer
Ni 0.117636 0.012469 0.219081
Ni 1.645834 1.798688 1.411425
Ni 3.128044 -0.137567 0.209386
Mo -1.671596 1.586285 1.555145
Mo 0.008219 -3.060653 -0.133884
Mo 1.605972 -1.715925 1.794162
Mo -3.092944 -2.872051 -0.243398
Mo -1.515224 -1.550959 1.758839
Mo 0.248077 0.224488 3.125163
Ni 1.662513 1.478605 -1.356659
Ni 3.028343 0.148973 2.996708
Mo -1.717333 1.340331 -1.507791
Ni -0.070781 2.968835 -3.059844
Ni 1.475162 -1.539705 -1.650777
Ni -2.968790 -3.089755 -3.012148
Ni -1.382329 -1.351363 -1.604506
