16
Atomic coordinates from LammpsImplicitDer
Ni 0.117644 0.012146 0.219483
Ni 1.645803 1.798844 1.411338
Ni 3.128074 -0.137641 0.209392
Mo -1.671510 1.586351 1.554995
Mo 0.008156 -3.060527 -0.133757
Mo 1.606073 -1.715965 1.794261
Mo -3.092931 -2.871925 -0.243633
Mo -1.515212 -1.551108 1.758848
Mo 0.247848 0.224345 3.124949
Ni 1.662155 1.478492 -1.356736
Ni 3.028589 0.149146 2.996642
Mo -1.717153 1.340314 -1.507624
Ni -0.070800 2.968780 -3.059864
Ni 1.475085 -1.539464 -1.650681
Ni -2.968805 -3.089831 -3.012193
Ni -1.382210 -1.351260 -1.604520
