16
Atomic coordinates from LammpsImplicitDer
Ni 0.117710 0.011285 0.220475
Ni 1.645687 1.799215 1.411134
Ni 3.128109 -0.137815 0.209388
Mo -1.671291 1.586508 1.554588
Mo 0.007973 -3.060124 -0.133439
Mo 1.606323 -1.716181 1.794591
Mo -3.092870 -2.871571 -0.244230
Mo -1.515208 -1.551533 1.758877
Mo 0.247273 0.224039 3.124260
Ni 1.661188 1.478109 -1.356868
Ni 3.029250 0.149649 2.996430
Mo -1.716646 1.340258 -1.507142
Ni -0.070839 2.968682 -3.059913
Ni 1.474870 -1.538823 -1.650421
Ni -2.968809 -3.090026 -3.012274
Ni -1.381916 -1.350979 -1.604555
