16
Atomic coordinates from LammpsImplicitDer
Ni 0.117828 0.009543 0.222069
Ni 1.645081 1.799497 1.411244
Ni 3.128101 -0.137659 0.208962
Mo -1.670632 1.586724 1.553764
Mo 0.007451 -3.058821 -0.132486
Mo 1.606730 -1.717026 1.795269
Mo -3.092503 -2.871207 -0.244842
Mo -1.515427 -1.552645 1.758588
Mo 0.245828 0.223378 3.121944
Ni 1.658609 1.477069 -1.356976
Ni 3.031086 0.150763 2.995970
Mo -1.714763 1.340544 -1.505919
Ni -0.070790 2.969114 -3.060265
Ni 1.474415 -1.537651 -1.649547
Ni -2.968526 -3.090335 -3.012486
Ni -1.381684 -1.350593 -1.604391
