16
Atomic coordinates from LammpsImplicitDer
Ni 0.117488 0.012438 0.219090
Ni 1.645737 1.798585 1.411603
Ni 3.128119 -0.137411 0.209247
Mo -1.671393 1.586292 1.555167
Mo 0.008218 -3.060659 -0.133704
Mo 1.606005 -1.715727 1.793936
Mo -3.092964 -2.872305 -0.243208
Mo -1.515258 -1.550989 1.758633
Mo 0.247808 0.224209 3.125159
Ni 1.662311 1.478647 -1.356828
Ni 3.028544 0.148916 2.996782
Mo -1.717044 1.340555 -1.507792
Ni -0.070696 2.969024 -3.059905
Ni 1.475268 -1.539619 -1.650582
Ni -2.968861 -3.089780 -3.012295
Ni -1.382479 -1.351481 -1.604406
