16
Atomic coordinates from LammpsImplicitDer
Ni 0.117836 0.010374 0.221405
Ni 1.645490 1.799511 1.411005
Ni 3.128091 -0.137913 0.209311
Mo -1.671068 1.586645 1.554141
Mo 0.007732 -3.059544 -0.133075
Mo 1.606547 -1.716615 1.795039
Mo -3.092725 -2.871197 -0.244763
Mo -1.515259 -1.552051 1.758881
Mo 0.246681 0.223811 3.123244
Ni 1.660050 1.477600 -1.356894
Ni 3.030025 0.150245 2.996162
Mo -1.715959 1.340231 -1.506549
Ni -0.070876 2.968693 -3.060011
Ni 1.474591 -1.538210 -1.650122
Ni -2.968698 -3.090200 -3.012311
Ni -1.381653 -1.350684 -1.604564
