16
Atomic coordinates from LammpsImplicitDer
Ni 0.117543 0.011321 0.220401
Ni 1.645589 1.799068 1.411346
Ni 3.128188 -0.137629 0.209235
Mo -1.671087 1.586502 1.554645
Mo 0.007987 -3.060162 -0.133267
Mo 1.606338 -1.715949 1.794319
Mo -3.092897 -2.871878 -0.243971
Mo -1.515247 -1.551531 1.758650
Mo 0.247024 0.223761 3.124309
Ni 1.661044 1.478183 -1.357039
Ni 3.029419 0.149548 2.996528
Mo -1.716367 1.340508 -1.507182
Ni -0.070742 2.968901 -3.059977
Ni 1.475002 -1.538779 -1.650227
Ni -2.968886 -3.090037 -3.012428
Ni -1.382104 -1.351132 -1.604441
