16
Atomic coordinates from LammpsImplicitDer
Ni 0.117659 0.011896 0.219781
Ni 1.645775 1.798960 1.411272
Ni 3.128089 -0.137698 0.209397
Mo -1.671446 1.586399 1.554878
Mo 0.008106 -3.060421 -0.133667
Mo 1.606149 -1.716013 1.794349
Mo -3.092919 -2.871822 -0.243814
Mo -1.515207 -1.551227 1.758859
Mo 0.247680 0.224249 3.124770
Ni 1.661882 1.478389 -1.356783
Ni 3.028776 0.149287 2.996584
Mo -1.717017 1.340295 -1.507490
Ni -0.070812 2.968742 -3.059876
Ni 1.475026 -1.539272 -1.650606
Ni -2.968815 -3.089890 -3.012221
Ni -1.382121 -1.351178 -1.604532
