16
Atomic coordinates from LammpsImplicitDer
Ni 0.118720 0.006084 0.220774
Ni 1.637572 1.793814 1.416768
Ni 3.128984 -0.128209 0.202948
Mo -1.670971 1.584108 1.552665
Mo 0.001640 -3.043182 -0.126886
Mo 1.604522 -1.733217 1.802018
Mo -3.083169 -2.869931 -0.239478
Mo -1.519364 -1.562150 1.757403
Mo 0.242183 0.227214 3.094682
Ni 1.639284 1.471313 -1.350053
Ni 3.044377 0.155796 2.992217
Mo -1.698336 1.343248 -1.496687
Ni -0.071191 2.977764 -3.068519
Ni 1.467694 -1.543666 -1.642369
Ni -2.956932 -3.086588 -3.014524
Ni -1.384202 -1.351705 -1.600062
