16
Atomic coordinates from LammpsImplicitDer
Ni 0.117678 0.011638 0.220081
Ni 1.645741 1.799072 1.411209
Ni 3.128100 -0.137751 0.209397
Mo -1.671381 1.586446 1.554756
Mo 0.008052 -3.060303 -0.133572
Mo 1.606224 -1.716074 1.794447
Mo -3.092902 -2.871716 -0.243995
Mo -1.515205 -1.551353 1.758868
Mo 0.247507 0.224156 3.124568
Ni 1.661593 1.478276 -1.356824
Ni 3.028973 0.149437 2.996521
Mo -1.716867 1.340278 -1.507347
Ni -0.070824 2.968711 -3.059889
Ni 1.474962 -1.539078 -1.650529
Ni -2.968817 -3.089949 -3.012246
Ni -1.382032 -1.351093 -1.604543
