16
Atomic coordinates from LammpsImplicitDer
Ni 0.117652 0.012016 0.219639
Ni 1.645789 1.798905 1.411303
Ni 3.128082 -0.137671 0.209395
Mo -1.671477 1.586376 1.554934
Mo 0.008130 -3.060473 -0.133711
Mo 1.606113 -1.715989 1.794306
Mo -3.092925 -2.871871 -0.243728
Mo -1.515209 -1.551170 1.758854
Mo 0.247760 0.224294 3.124857
Ni 1.662013 1.478439 -1.356761
Ni 3.028686 0.149219 2.996612
Mo -1.717083 1.340304 -1.507555
Ni -0.070806 2.968759 -3.059870
Ni 1.475055 -1.539363 -1.650642
Ni -2.968811 -3.089862 -3.012208
Ni -1.382163 -1.351217 -1.604526
