16
Atomic coordinates from LammpsImplicitDer
Ni 0.117565 0.011089 0.220652
Ni 1.645545 1.799152 1.411308
Ni 3.128191 -0.137660 0.209221
Mo -1.671024 1.586541 1.554534
Mo 0.007931 -3.060034 -0.133173
Mo 1.606401 -1.716029 1.794416
Mo -3.092870 -2.871789 -0.244114
Mo -1.515254 -1.551655 1.758649
Mo 0.246865 0.223685 3.124085
Ni 1.660764 1.478067 -1.357063
Ni 3.029612 0.149691 2.996467
Mo -1.716203 1.340503 -1.507041
Ni -0.070750 2.968895 -3.059998
Ni 1.474939 -1.538614 -1.650151
Ni -2.968873 -3.090085 -3.012446
Ni -1.382035 -1.351060 -1.604445
