16
Atomic coordinates from LammpsImplicitDer
Ni 0.117698 0.011414 0.220333
Ni 1.645708 1.799164 1.411160
Ni 3.128107 -0.137793 0.209392
Mo -1.671324 1.586486 1.554650
Mo 0.008002 -3.060192 -0.133488
Mo 1.606287 -1.716139 1.794537
Mo -3.092883 -2.871624 -0.244146
Mo -1.515206 -1.551466 1.758874
Mo 0.247358 0.224080 3.124377
Ni 1.661338 1.478172 -1.356854
Ni 3.029148 0.149571 2.996464
Mo -1.716729 1.340265 -1.507218
Ni -0.070834 2.968691 -3.059903
Ni 1.474904 -1.538915 -1.650461
Ni -2.968814 -3.089998 -3.012265
Ni -1.381957 -1.351020 -1.604551
