16
Atomic coordinates from LammpsImplicitDer
Ni 0.118056 0.009441 0.222192
Ni 1.645168 1.799676 1.410996
Ni 3.127989 -0.137873 0.209127
Mo -1.670871 1.586730 1.553663
Mo 0.007408 -3.058698 -0.132671
Mo 1.606715 -1.717388 1.795652
Mo -3.092441 -2.870809 -0.245169
Mo -1.515398 -1.552699 1.758860
Mo 0.246102 0.223728 3.121749
Ni 1.658687 1.476921 -1.356742
Ni 3.030945 0.150937 2.995824
Mo -1.715029 1.340242 -1.505811
Ni -0.070906 2.968873 -3.060201
Ni 1.474232 -1.537671 -1.649751
Ni -2.968399 -3.090328 -3.012292
Ni -1.381453 -1.350385 -1.604524
