16
Atomic coordinates from LammpsImplicitDer
Ni 0.117488 0.012543 0.218956
Ni 1.645746 1.798533 1.411631
Ni 3.128106 -0.137388 0.209246
Mo -1.671423 1.586270 1.555215
Mo 0.008239 -3.060698 -0.133749
Mo 1.605971 -1.715718 1.793908
Mo -3.092969 -2.872345 -0.243133
Mo -1.515263 -1.550941 1.758632
Mo 0.247887 0.224260 3.125226
Ni 1.662431 1.478678 -1.356799
Ni 3.028462 0.148861 2.996802
Mo -1.717105 1.340557 -1.507846
Ni -0.070688 2.969044 -3.059894
Ni 1.475295 -1.539694 -1.650613
Ni -2.968856 -3.089756 -3.012278
Ni -1.382518 -1.351513 -1.604402
