16
Atomic coordinates from LammpsImplicitDer
Ni 0.117503 0.011928 0.219710
Ni 1.645680 1.798820 1.411475
Ni 3.128161 -0.137520 0.209250
Mo -1.671252 1.586392 1.554932
Mo 0.008118 -3.060453 -0.133504
Mo 1.606163 -1.715796 1.794094
Mo -3.092943 -2.872113 -0.243568
Mo -1.515245 -1.551227 1.758643
Mo 0.247443 0.223986 3.124811
Ni 1.661743 1.478456 -1.356944
Ni 3.028937 0.149192 2.996675
Mo -1.716751 1.340532 -1.507525
Ni -0.070719 2.968951 -3.059937
Ni 1.475153 -1.539229 -1.650421
Ni -2.968887 -3.089901 -3.012366
Ni -1.382300 -1.351322 -1.604424
