16
Atomic coordinates from LammpsImplicitDer
Ni 0.117504 0.011902 0.219742
Ni 1.645676 1.798832 1.411469
Ni 3.128163 -0.137526 0.209250
Mo -1.671245 1.586397 1.554919
Mo 0.008113 -3.060442 -0.133494
Mo 1.606171 -1.715801 1.794103
Mo -3.092942 -2.872102 -0.243587
Mo -1.515244 -1.551240 1.758643
Mo 0.247425 0.223975 3.124791
Ni 1.661713 1.478445 -1.356949
Ni 3.028958 0.149207 2.996669
Mo -1.716735 1.340531 -1.507511
Ni -0.070720 2.968948 -3.059938
Ni 1.475146 -1.539209 -1.650413
Ni -2.968888 -3.089907 -3.012370
Ni -1.382291 -1.351314 -1.604425
