16
Atomic coordinates from LammpsImplicitDer
Ni 0.117489 0.012578 0.218912
Ni 1.645749 1.798516 1.411640
Ni 3.128102 -0.137380 0.209245
Mo -1.671432 1.586263 1.555231
Mo 0.008246 -3.060711 -0.133764
Mo 1.605960 -1.715715 1.793899
Mo -3.092970 -2.872358 -0.243108
Mo -1.515264 -1.550925 1.758631
Mo 0.247912 0.224277 3.125248
Ni 1.662470 1.478688 -1.356790
Ni 3.028435 0.148844 2.996808
Mo -1.717125 1.340558 -1.507864
Ni -0.070685 2.969050 -3.059891
Ni 1.475303 -1.539718 -1.650624
Ni -2.968854 -3.089748 -3.012273
Ni -1.382531 -1.351524 -1.604401
