16
Atomic coordinates from LammpsImplicitDer
Ni 0.117581 0.010940 0.220807
Ni 1.645515 1.799202 1.411286
Ni 3.128192 -0.137677 0.209209
Mo -1.670984 1.586565 1.554462
Mo 0.007894 -3.059946 -0.133112
Mo 1.606439 -1.716089 1.794482
Mo -3.092851 -2.871732 -0.244201
Mo -1.515260 -1.551737 1.758648
Mo 0.246764 0.223640 3.123932
Ni 1.660580 1.477988 -1.357074
Ni 3.029738 0.149784 2.996426
Mo -1.716093 1.340501 -1.506948
Ni -0.070755 2.968896 -3.060013
Ni 1.474897 -1.538512 -1.650100
Ni -2.968861 -3.090115 -3.012456
Ni -1.381992 -1.351014 -1.604446
