16
Atomic coordinates from LammpsImplicitDer
Ni 0.117638 0.010495 0.221252
Ni 1.645408 1.799333 1.411239
Ni 3.128183 -0.137709 0.209158
Mo -1.670866 1.586629 1.554244
Mo 0.007772 -3.059651 -0.132922
Mo 1.606547 -1.716307 1.794697
Mo -3.092774 -2.871563 -0.244444
Mo -1.515291 -1.551996 1.758638
Mo 0.246461 0.223522 3.123413
Ni 1.660004 1.477734 -1.357086
Ni 3.030134 0.150076 2.996296
Mo -1.715730 1.340502 -1.506653
Ni -0.070769 2.968920 -3.060069
Ni 1.474761 -1.538215 -1.649943
Ni -2.968800 -3.090198 -3.012478
Ni -1.381875 -1.350877 -1.604442
