16
Atomic coordinates from LammpsImplicitDer
Ni 0.117674 0.011693 0.220018
Ni 1.645749 1.799049 1.411222
Ni 3.128098 -0.137740 0.209397
Mo -1.671395 1.586436 1.554782
Mo 0.008064 -3.060329 -0.133592
Mo 1.606208 -1.716060 1.794425
Mo -3.092906 -2.871738 -0.243957
Mo -1.515205 -1.551326 1.758866
Mo 0.247544 0.224175 3.124612
Ni 1.661655 1.478300 -1.356816
Ni 3.028930 0.149405 2.996535
Mo -1.716900 1.340281 -1.507378
Ni -0.070821 2.968717 -3.059886
Ni 1.474976 -1.539119 -1.650545
Ni -2.968817 -3.089937 -3.012241
Ni -1.382050 -1.351111 -1.604541
