16
Atomic coordinates from LammpsImplicitDer
Ni 0.117790 0.009701 0.221948
Ni 1.645146 1.799483 1.411232
Ni 3.128121 -0.137680 0.209004
Mo -1.670668 1.586713 1.553845
Mo 0.007511 -3.058981 -0.132562
Mo 1.606705 -1.716879 1.795162
Mo -3.092561 -2.871265 -0.244789
Mo -1.515397 -1.552526 1.758599
Mo 0.245931 0.223390 3.122228
Ni 1.658860 1.477193 -1.357009
Ni 3.030915 0.150643 2.996029
Mo -1.714944 1.340533 -1.506052
Ni -0.070788 2.969066 -3.060224
Ni 1.474479 -1.537738 -1.649620
Ni -2.968588 -3.090317 -3.012488
Ni -1.381709 -1.350639 -1.604404
