16
Atomic coordinates from LammpsImplicitDer
Ni 0.121511 0.005616 0.221027
Ni 1.639181 1.795931 1.413821
Ni 3.126372 -0.131914 0.205374
Mo -1.672771 1.584484 1.552000
Mo 0.003019 -3.044880 -0.130769
Mo 1.605031 -1.732966 1.803995
Mo -3.085290 -2.867555 -0.243515
Mo -1.518889 -1.560761 1.759811
Mo 0.245769 0.229327 3.098428
Ni 1.644419 1.469090 -1.349354
Ni 3.040122 0.156399 2.991729
Mo -1.704245 1.339823 -1.497919
Ni -0.070633 2.974964 -3.065084
Ni 1.469425 -1.539019 -1.644335
Ni -2.959515 -3.088197 -3.012135
Ni -1.382694 -1.349652 -1.602175
