16
Atomic coordinates from LammpsImplicitDer
Ni 0.117636 0.012653 0.218844
Ni 1.645848 1.798594 1.411477
Ni 3.128022 -0.137522 0.209381
Mo -1.671643 1.586246 1.555229
Mo 0.008255 -3.060720 -0.133961
Mo 1.605913 -1.715907 1.794110
Mo -3.092952 -2.872124 -0.243263
Mo -1.515233 -1.550876 1.758833
Mo 0.248212 0.224574 3.125278
Ni 1.662719 1.478657 -1.356611
Ni 3.028202 0.148878 2.996742
Mo -1.717436 1.340338 -1.507886
Ni -0.070766 2.968873 -3.059826
Ni 1.475210 -1.539833 -1.650828
Ni -2.968783 -3.089713 -3.012120
Ni -1.382401 -1.351422 -1.604499
