16
Atomic coordinates from LammpsImplicitDer
Ni 0.117676 0.011665 0.220049
Ni 1.645745 1.799061 1.411215
Ni 3.128099 -0.137746 0.209397
Mo -1.671388 1.586441 1.554769
Mo 0.008058 -3.060316 -0.133582
Mo 1.606216 -1.716067 1.794436
Mo -3.092904 -2.871727 -0.243976
Mo -1.515205 -1.551340 1.758867
Mo 0.247525 0.224165 3.124590
Ni 1.661625 1.478288 -1.356820
Ni 3.028952 0.149421 2.996528
Mo -1.716884 1.340279 -1.507363
Ni -0.070822 2.968714 -3.059888
Ni 1.474969 -1.539099 -1.650537
Ni -2.968817 -3.089943 -3.012244
Ni -1.382041 -1.351102 -1.604542
