16
Atomic coordinates from LammpsImplicitDer
Ni 0.117503 0.011915 0.219726
Ni 1.645678 1.798826 1.411472
Ni 3.128162 -0.137523 0.209250
Mo -1.671249 1.586395 1.554925
Mo 0.008116 -3.060447 -0.133499
Mo 1.606167 -1.715799 1.794098
Mo -3.092942 -2.872107 -0.243577
Mo -1.515244 -1.551234 1.758643
Mo 0.247434 0.223981 3.124801
Ni 1.661728 1.478450 -1.356946
Ni 3.028947 0.149200 2.996672
Mo -1.716743 1.340532 -1.507518
Ni -0.070719 2.968950 -3.059937
Ni 1.475149 -1.539219 -1.650417
Ni -2.968887 -3.089904 -3.012368
Ni -1.382296 -1.351318 -1.604424
