16
Atomic coordinates from LammpsImplicitDer
Ni 0.117636 0.012516 0.219021
Ni 1.645838 1.798665 1.411438
Ni 3.128039 -0.137555 0.209385
Mo -1.671608 1.586276 1.555166
Mo 0.008228 -3.060670 -0.133904
Mo 1.605957 -1.715920 1.794149
Mo -3.092946 -2.872070 -0.243364
Mo -1.515226 -1.550938 1.758837
Mo 0.248112 0.224509 3.125192
Ni 1.662565 1.478619 -1.356647
Ni 3.028307 0.148949 2.996717
Mo -1.717359 1.340333 -1.507815
Ni -0.070778 2.968844 -3.059840
Ni 1.475174 -1.539738 -1.650790
Ni -2.968788 -3.089745 -3.012141
Ni -1.382347 -1.351378 -1.604504
