16
Atomic coordinates from LammpsImplicitDer
Ni 0.117496 0.012073 0.219538
Ni 1.645698 1.798755 1.411511
Ni 3.128152 -0.137490 0.209250
Mo -1.671292 1.586364 1.554999
Mo 0.008147 -3.060515 -0.133559
Mo 1.606119 -1.715771 1.794045
Mo -3.092950 -2.872169 -0.243466
Mo -1.515247 -1.551158 1.758639
Mo 0.247544 0.224045 3.124916
Ni 1.661904 1.478515 -1.356915
Ni 3.028826 0.149111 2.996708
Mo -1.716834 1.340540 -1.507603
Ni -0.070713 2.968970 -3.059929
Ni 1.475186 -1.539341 -1.650467
Ni -2.968881 -3.089867 -3.012349
Ni -1.382350 -1.351368 -1.604418
