16
Atomic coordinates from LammpsImplicitDer
Ni 0.117636 0.012445 0.219111
Ni 1.645832 1.798700 1.411418
Ni 3.128047 -0.137572 0.209386
Mo -1.671589 1.586290 1.555134
Mo 0.008214 -3.060644 -0.133874
Mo 1.605980 -1.715927 1.794169
Mo -3.092943 -2.872042 -0.243415
Mo -1.515223 -1.550970 1.758840
Mo 0.248060 0.224476 3.125147
Ni 1.662486 1.478597 -1.356665
Ni 3.028361 0.148985 2.996704
Mo -1.717319 1.340330 -1.507779
Ni -0.070783 2.968830 -3.059846
Ni 1.475156 -1.539688 -1.650770
Ni -2.968791 -3.089761 -3.012152
Ni -1.382320 -1.351356 -1.604507
