16
Atomic coordinates from LammpsImplicitDer
Ni 0.117501 0.011955 0.219679
Ni 1.645683 1.798808 1.411481
Ni 3.128160 -0.137515 0.209251
Mo -1.671260 1.586387 1.554944
Mo 0.008124 -3.060465 -0.133514
Mo 1.606155 -1.715791 1.794084
Mo -3.092944 -2.872123 -0.243550
Mo -1.515245 -1.551215 1.758642
Mo 0.247462 0.223997 3.124830
Ni 1.661773 1.478467 -1.356938
Ni 3.028917 0.149177 2.996681
Mo -1.716767 1.340534 -1.507540
Ni -0.070718 2.968954 -3.059935
Ni 1.475159 -1.539250 -1.650430
Ni -2.968886 -3.089895 -3.012363
Ni -1.382309 -1.351330 -1.604423
