16
Atomic coordinates from LammpsImplicitDer
Ni 0.117489 0.012566 0.218927
Ni 1.645748 1.798522 1.411637
Ni 3.128104 -0.137383 0.209245
Mo -1.671429 1.586265 1.555226
Mo 0.008244 -3.060706 -0.133759
Mo 1.605964 -1.715716 1.793902
Mo -3.092970 -2.872354 -0.243116
Mo -1.515264 -1.550930 1.758631
Mo 0.247904 0.224271 3.125241
Ni 1.662457 1.478685 -1.356793
Ni 3.028444 0.148850 2.996806
Mo -1.717119 1.340558 -1.507858
Ni -0.070686 2.969048 -3.059892
Ni 1.475300 -1.539710 -1.650620
Ni -2.968855 -3.089751 -3.012274
Ni -1.382527 -1.351520 -1.604402
