16
Atomic coordinates from LammpsImplicitDer
Ni 0.117540 0.011364 0.220354
Ni 1.645596 1.799052 1.411354
Ni 3.128186 -0.137622 0.209237
Mo -1.671099 1.586495 1.554666
Mo 0.007997 -3.060184 -0.133284
Mo 1.606326 -1.715935 1.794302
Mo -3.092901 -2.871895 -0.243944
Mo -1.515246 -1.551509 1.758650
Mo 0.247054 0.223775 3.124348
Ni 1.661095 1.478203 -1.357034
Ni 3.029384 0.149522 2.996539
Mo -1.716397 1.340510 -1.507207
Ni -0.070740 2.968903 -3.059974
Ni 1.475013 -1.538810 -1.650241
Ni -2.968888 -3.090028 -3.012424
Ni -1.382117 -1.351145 -1.604441
