16
Atomic coordinates from LammpsImplicitDer
Ni 0.117636 0.012433 0.219127
Ni 1.645831 1.798706 1.411415
Ni 3.128048 -0.137575 0.209387
Mo -1.671586 1.586293 1.555128
Mo 0.008211 -3.060639 -0.133869
Mo 1.605983 -1.715928 1.794172
Mo -3.092942 -2.872037 -0.243424
Mo -1.515222 -1.550975 1.758840
Mo 0.248051 0.224471 3.125140
Ni 1.662473 1.478594 -1.356669
Ni 3.028371 0.148992 2.996702
Mo -1.717313 1.340329 -1.507773
Ni -0.070784 2.968828 -3.059847
Ni 1.475153 -1.539680 -1.650766
Ni -2.968791 -3.089764 -3.012153
Ni -1.382316 -1.351352 -1.604508
