16
Atomic coordinates from LammpsImplicitDer
Ni 0.117691 0.011485 0.220254
Ni 1.645719 1.799136 1.411175
Ni 3.128105 -0.137781 0.209394
Mo -1.671342 1.586474 1.554683
Mo 0.008018 -3.060228 -0.133515
Mo 1.606268 -1.716117 1.794508
Mo -3.092889 -2.871653 -0.244099
Mo -1.515205 -1.551430 1.758872
Mo 0.247405 0.224104 3.124439
Ni 1.661419 1.478205 -1.356845
Ni 3.029092 0.149528 2.996482
Mo -1.716774 1.340269 -1.507259
Ni -0.070830 2.968697 -3.059899
Ni 1.474923 -1.538966 -1.650482
Ni -2.968816 -3.089983 -3.012259
Ni -1.381980 -1.351043 -1.604549
