16
Atomic coordinates from LammpsImplicitDer
Ni 0.117642 0.012185 0.219436
Ni 1.645807 1.798826 1.411349
Ni 3.128072 -0.137632 0.209391
Mo -1.671520 1.586343 1.555013
Mo 0.008163 -3.060543 -0.133772
Mo 1.606061 -1.715959 1.794248
Mo -3.092932 -2.871941 -0.243604
Mo -1.515214 -1.551090 1.758847
Mo 0.247874 0.224361 3.124976
Ni 1.662197 1.478507 -1.356728
Ni 3.028560 0.149124 2.996651
Mo -1.717174 1.340317 -1.507644
Ni -0.070798 2.968786 -3.059863
Ni 1.475094 -1.539494 -1.650692
Ni -2.968804 -3.089822 -3.012188
Ni -1.382224 -1.351273 -1.604518
