16
Atomic coordinates from LammpsImplicitDer
Ni 0.117825 0.010438 0.221345
Ni 1.645507 1.799494 1.411010
Ni 3.128094 -0.137910 0.209319
Mo -1.671083 1.586637 1.554173
Mo 0.007751 -3.059592 -0.133101
Mo 1.606533 -1.716576 1.795004
Mo -3.092739 -2.871224 -0.244730
Mo -1.515253 -1.552012 1.758882
Mo 0.246721 0.223823 3.123328
Ni 1.660135 1.477640 -1.356897
Ni 3.029967 0.150201 2.996183
Mo -1.716014 1.340232 -1.506594
Ni -0.070874 2.968688 -3.060001
Ni 1.474613 -1.538251 -1.650145
Ni -2.968711 -3.090189 -3.012310
Ni -1.381670 -1.350704 -1.604565
