16
Atomic coordinates from LammpsImplicitDer
Ni 0.117641 0.012223 0.219389
Ni 1.645811 1.798808 1.411359
Ni 3.128069 -0.137623 0.209390
Mo -1.671530 1.586336 1.555031
Mo 0.008171 -3.060558 -0.133786
Mo 1.606050 -1.715953 1.794235
Mo -3.092934 -2.871956 -0.243576
Mo -1.515215 -1.551072 1.758845
Mo 0.247901 0.224377 3.125002
Ni 1.662239 1.478521 -1.356719
Ni 3.028531 0.149103 2.996659
Mo -1.717195 1.340319 -1.507664
Ni -0.070796 2.968792 -3.059861
Ni 1.475103 -1.539523 -1.650704
Ni -2.968802 -3.089813 -3.012183
Ni -1.382238 -1.351285 -1.604516
