16
Atomic coordinates from LammpsImplicitDer
Ni 0.117490 0.012215 0.219366
Ni 1.645714 1.798690 1.411547
Ni 3.128142 -0.137459 0.209248
Mo -1.671330 1.586337 1.555065
Mo 0.008175 -3.060573 -0.133613
Mo 1.606075 -1.715749 1.793999
Mo -3.092956 -2.872224 -0.243364
Mo -1.515251 -1.551091 1.758636
Mo 0.247644 0.224105 3.125014
Ni 1.662061 1.478571 -1.356884
Ni 3.028717 0.149033 2.996739
Mo -1.716914 1.340548 -1.507677
Ni -0.070707 2.968990 -3.059922
Ni 1.475217 -1.539452 -1.650512
Ni -2.968874 -3.089833 -3.012330
Ni -1.382400 -1.351413 -1.604413
