16
Atomic coordinates from LammpsImplicitDer
Ni 0.117552 0.011220 0.220511
Ni 1.645571 1.799105 1.411329
Ni 3.128190 -0.137643 0.209230
Mo -1.671060 1.586519 1.554597
Mo 0.007963 -3.060107 -0.133227
Mo 1.606365 -1.715982 1.794360
Mo -3.092886 -2.871839 -0.244034
Mo -1.515249 -1.551584 1.758650
Mo 0.246955 0.223727 3.124214
Ni 1.660923 1.478133 -1.357050
Ni 3.029502 0.149609 2.996502
Mo -1.716298 1.340506 -1.507122
Ni -0.070745 2.968898 -3.059986
Ni 1.474975 -1.538707 -1.650194
Ni -2.968881 -3.090058 -3.012436
Ni -1.382073 -1.351101 -1.604443
