16
Atomic coordinates from LammpsImplicitDer
Ni 0.117636 0.012641 0.218858
Ni 1.645847 1.798600 1.411473
Ni 3.128023 -0.137525 0.209381
Mo -1.671640 1.586249 1.555224
Mo 0.008253 -3.060716 -0.133956
Mo 1.605917 -1.715908 1.794113
Mo -3.092952 -2.872120 -0.243272
Mo -1.515233 -1.550881 1.758833
Mo 0.248203 0.224568 3.125271
Ni 1.662706 1.478654 -1.356614
Ni 3.028211 0.148884 2.996740
Mo -1.717429 1.340338 -1.507880
Ni -0.070767 2.968871 -3.059827
Ni 1.475207 -1.539825 -1.650825
Ni -2.968783 -3.089716 -3.012121
Ni -1.382397 -1.351418 -1.604499
