16
Atomic coordinates from LammpsImplicitDer
Ni 0.117770 0.009787 0.221879
Ni 1.645180 1.799472 1.411227
Ni 3.128131 -0.137690 0.209026
Mo -1.670689 1.586706 1.553889
Mo 0.007543 -3.059064 -0.132602
Mo 1.606690 -1.716804 1.795106
Mo -3.092590 -2.871297 -0.244758
Mo -1.515382 -1.552464 1.758605
Mo 0.245988 0.223398 3.122376
Ni 1.658993 1.477258 -1.357025
Ni 3.030825 0.150578 2.996061
Mo -1.715040 1.340528 -1.506123
Ni -0.070786 2.969043 -3.060203
Ni 1.474512 -1.537786 -1.649658
Ni -2.968618 -3.090306 -3.012488
Ni -1.381724 -1.350664 -1.604411
