16
Atomic coordinates from LammpsImplicitDer
Ni 0.117643 0.012172 0.219451
Ni 1.645806 1.798832 1.411345
Ni 3.128073 -0.137635 0.209391
Mo -1.671516 1.586346 1.555007
Mo 0.008161 -3.060538 -0.133767
Mo 1.606065 -1.715961 1.794252
Mo -3.092932 -2.871935 -0.243613
Mo -1.515213 -1.551096 1.758847
Mo 0.247865 0.224355 3.124967
Ni 1.662183 1.478502 -1.356731
Ni 3.028569 0.149131 2.996648
Mo -1.717167 1.340316 -1.507637
Ni -0.070799 2.968784 -3.059863
Ni 1.475091 -1.539484 -1.650688
Ni -2.968804 -3.089825 -3.012190
Ni -1.382220 -1.351268 -1.604518
