16
Atomic coordinates from LammpsImplicitDer
Ni 0.117488 0.012450 0.219075
Ni 1.645738 1.798579 1.411606
Ni 3.128118 -0.137409 0.209247
Mo -1.671397 1.586289 1.555172
Mo 0.008221 -3.060663 -0.133709
Mo 1.606001 -1.715726 1.793933
Mo -3.092965 -2.872310 -0.243199
Mo -1.515258 -1.550983 1.758633
Mo 0.247817 0.224215 3.125167
Ni 1.662325 1.478651 -1.356825
Ni 3.028535 0.148910 2.996785
Mo -1.717051 1.340555 -1.507798
Ni -0.070695 2.969027 -3.059904
Ni 1.475271 -1.539627 -1.650585
Ni -2.968860 -3.089778 -3.012294
Ni -1.382483 -1.351484 -1.604405
