16
Atomic coordinates from LammpsImplicitDer
Ni 0.117490 0.012646 0.218824
Ni 1.645754 1.798482 1.411659
Ni 3.128093 -0.137365 0.209244
Mo -1.671450 1.586248 1.555262
Mo 0.008260 -3.060735 -0.133794
Mo 1.605938 -1.715710 1.793881
Mo -3.092973 -2.872383 -0.243060
Mo -1.515268 -1.550895 1.758630
Mo 0.247963 0.224310 3.125290
Ni 1.662547 1.478706 -1.356771
Ni 3.028382 0.148809 2.996819
Mo -1.717165 1.340560 -1.507898
Ni -0.070679 2.969064 -3.059882
Ni 1.475321 -1.539764 -1.650643
Ni -2.968852 -3.089732 -3.012261
Ni -1.382557 -1.351544 -1.604399
