16
Atomic coordinates from LammpsImplicitDer
Ni 0.117651 0.012029 0.219624
Ni 1.645790 1.798899 1.411306
Ni 3.128081 -0.137668 0.209395
Mo -1.671480 1.586373 1.554940
Mo 0.008133 -3.060478 -0.133715
Mo 1.606109 -1.715986 1.794302
Mo -3.092926 -2.871876 -0.243719
Mo -1.515210 -1.551164 1.758853
Mo 0.247769 0.224299 3.124867
Ni 1.662027 1.478444 -1.356759
Ni 3.028676 0.149212 2.996615
Mo -1.717090 1.340305 -1.507562
Ni -0.070806 2.968761 -3.059870
Ni 1.475058 -1.539373 -1.650646
Ni -2.968810 -3.089859 -3.012207
Ni -1.382168 -1.351221 -1.604526
