16
Atomic coordinates from LammpsImplicitDer
Ni 0.117637 0.012719 0.218756
Ni 1.645852 1.798559 1.411496
Ni 3.128013 -0.137506 0.209379
Mo -1.671660 1.586232 1.555260
Mo 0.008269 -3.060745 -0.133990
Mo 1.605891 -1.715902 1.794092
Mo -3.092956 -2.872151 -0.243214
Mo -1.515237 -1.550847 1.758830
Mo 0.248261 0.224606 3.125320
Ni 1.662794 1.478675 -1.356592
Ni 3.028151 0.148845 2.996754
Mo -1.717473 1.340341 -1.507920
Ni -0.070759 2.968888 -3.059818
Ni 1.475229 -1.539878 -1.650847
Ni -2.968781 -3.089699 -3.012109
Ni -1.382428 -1.351443 -1.604496
