16
Atomic coordinates from LammpsImplicitDer
Ni 0.117595 0.010820 0.220931
Ni 1.645488 1.799240 1.411271
Ni 3.128191 -0.137688 0.209197
Mo -1.670952 1.586583 1.554404
Mo 0.007863 -3.059871 -0.133061
Mo 1.606470 -1.716142 1.794537
Mo -3.092832 -2.871686 -0.244270
Mo -1.515267 -1.551805 1.758646
Mo 0.246681 0.223605 3.123800
Ni 1.660428 1.477923 -1.357081
Ni 3.029843 0.149862 2.996392
Mo -1.715999 1.340501 -1.506871
Ni -0.070759 2.968899 -3.060027
Ni 1.474862 -1.538430 -1.650059
Ni -2.968848 -3.090138 -3.012463
Ni -1.381959 -1.350977 -1.604446
