16
Atomic coordinates from LammpsImplicitDer
Ni 0.117713 0.011256 0.220507
Ni 1.645682 1.799226 1.411128
Ni 3.128110 -0.137820 0.209387
Mo -1.671284 1.586513 1.554574
Mo 0.007966 -3.060109 -0.133428
Mo 1.606330 -1.716191 1.794603
Mo -3.092867 -2.871559 -0.244248
Mo -1.515209 -1.551548 1.758877
Mo 0.247254 0.224030 3.124233
Ni 1.661154 1.478095 -1.356871
Ni 3.029273 0.149667 2.996423
Mo -1.716627 1.340257 -1.507125
Ni -0.070840 2.968681 -3.059915
Ni 1.474862 -1.538802 -1.650412
Ni -2.968807 -3.090032 -3.012276
Ni -1.381907 -1.350969 -1.604556
