16
Atomic coordinates from LammpsImplicitDer
Ni 0.117489 0.012316 0.219243
Ni 1.645725 1.798643 1.411572
Ni 3.128132 -0.137438 0.209248
Mo -1.671359 1.586317 1.555111
Mo 0.008195 -3.060612 -0.133653
Mo 1.606044 -1.715738 1.793970
Mo -3.092959 -2.872261 -0.243294
Mo -1.515254 -1.551044 1.758635
Mo 0.247717 0.224151 3.125081
Ni 1.662174 1.478607 -1.356860
Ni 3.028639 0.148980 2.996759
Mo -1.716973 1.340551 -1.507729
Ni -0.070703 2.969005 -3.059915
Ni 1.475240 -1.539528 -1.650544
Ni -2.968868 -3.089809 -3.012315
Ni -1.382435 -1.351443 -1.604409
