16
Atomic coordinates from LammpsImplicitDer
Ni 0.117498 0.012034 0.219585
Ni 1.645693 1.798773 1.411501
Ni 3.128155 -0.137498 0.209250
Mo -1.671281 1.586372 1.554981
Mo 0.008140 -3.060498 -0.133544
Mo 1.606131 -1.715777 1.794058
Mo -3.092948 -2.872154 -0.243494
Mo -1.515246 -1.551177 1.758640
Mo 0.247517 0.224029 3.124888
Ni 1.661861 1.478499 -1.356923
Ni 3.028856 0.149133 2.996699
Mo -1.716812 1.340538 -1.507582
Ni -0.070715 2.968965 -3.059931
Ni 1.475177 -1.539311 -1.650455
Ni -2.968883 -3.089876 -3.012354
Ni -1.382337 -1.351355 -1.604420
