16
Atomic coordinates from LammpsImplicitDer
Ni 0.117490 0.012690 0.218765
Ni 1.645757 1.798459 1.411671
Ni 3.128087 -0.137354 0.209243
Mo -1.671462 1.586239 1.555283
Mo 0.008269 -3.060751 -0.133813
Mo 1.605924 -1.715707 1.793869
Mo -3.092976 -2.872401 -0.243028
Mo -1.515270 -1.550875 1.758629
Mo 0.247997 0.224333 3.125317
Ni 1.662599 1.478717 -1.356758
Ni 3.028347 0.148787 2.996827
Mo -1.717191 1.340561 -1.507921
Ni -0.070675 2.969073 -3.059876
Ni 1.475333 -1.539794 -1.650656
Ni -2.968850 -3.089722 -3.012253
Ni -1.382575 -1.351558 -1.604398
