16
Atomic coordinates from LammpsImplicitDer
Ni 0.117532 0.011463 0.220244
Ni 1.645613 1.799014 1.411373
Ni 3.128183 -0.137607 0.209242
Mo -1.671126 1.586477 1.554713
Mo 0.008019 -3.060235 -0.133324
Mo 1.606298 -1.715906 1.794263
Mo -3.092910 -2.871933 -0.243881
Mo -1.515244 -1.551458 1.758649
Mo 0.247122 0.223810 3.124436
Ni 1.661211 1.478250 -1.357021
Ni 3.029304 0.149462 2.996564
Mo -1.716463 1.340513 -1.507265
Ni -0.070736 2.968908 -3.059966
Ni 1.475039 -1.538882 -1.650273
Ni -2.968890 -3.090006 -3.012416
Ni -1.382148 -1.351176 -1.604438
