16
Atomic coordinates from LammpsImplicitDer
Ni 0.117490 0.012203 0.219382
Ni 1.645712 1.798696 1.411544
Ni 3.128143 -0.137462 0.209248
Mo -1.671327 1.586339 1.555059
Mo 0.008173 -3.060568 -0.133608
Mo 1.606079 -1.715751 1.794003
Mo -3.092955 -2.872219 -0.243373
Mo -1.515250 -1.551097 1.758636
Mo 0.247635 0.224099 3.125005
Ni 1.662047 1.478566 -1.356887
Ni 3.028727 0.149040 2.996736
Mo -1.716907 1.340548 -1.507671
Ni -0.070708 2.968988 -3.059922
Ni 1.475215 -1.539442 -1.650508
Ni -2.968874 -3.089836 -3.012332
Ni -1.382396 -1.351409 -1.604413
