16
Atomic coordinates from LammpsImplicitDer
Ni 0.117488 0.012497 0.219015
Ni 1.645742 1.798556 1.411619
Ni 3.128112 -0.137398 0.209247
Mo -1.671410 1.586280 1.555194
Mo 0.008230 -3.060681 -0.133729
Mo 1.605986 -1.715722 1.793920
Mo -3.092967 -2.872327 -0.243166
Mo -1.515261 -1.550962 1.758633
Mo 0.247852 0.224238 3.125197
Ni 1.662378 1.478665 -1.356812
Ni 3.028498 0.148885 2.996793
Mo -1.717078 1.340556 -1.507822
Ni -0.070692 2.969035 -3.059899
Ni 1.475283 -1.539661 -1.650600
Ni -2.968858 -3.089767 -3.012286
Ni -1.382501 -1.351499 -1.604404
