16
Atomic coordinates from LammpsImplicitDer
Ni 0.117533 0.011449 0.220260
Ni 1.645610 1.799019 1.411370
Ni 3.128184 -0.137609 0.209241
Mo -1.671122 1.586480 1.554706
Mo 0.008016 -3.060228 -0.133318
Mo 1.606302 -1.715910 1.794268
Mo -3.092909 -2.871927 -0.243890
Mo -1.515244 -1.551465 1.758649
Mo 0.247112 0.223805 3.124424
Ni 1.661195 1.478244 -1.357022
Ni 3.029315 0.149471 2.996560
Mo -1.716453 1.340512 -1.507257
Ni -0.070737 2.968908 -3.059967
Ni 1.475035 -1.538871 -1.650269
Ni -2.968890 -3.090009 -3.012417
Ni -1.382143 -1.351172 -1.604439
