16
Atomic coordinates from LammpsImplicitDer
Ni 0.117495 0.012086 0.219522
Ni 1.645699 1.798749 1.411514
Ni 3.128151 -0.137487 0.209250
Mo -1.671295 1.586362 1.555005
Mo 0.008150 -3.060520 -0.133564
Mo 1.606115 -1.715769 1.794041
Mo -3.092951 -2.872174 -0.243457
Mo -1.515247 -1.551152 1.758639
Mo 0.247553 0.224050 3.124925
Ni 1.661919 1.478521 -1.356912
Ni 3.028816 0.149104 2.996711
Mo -1.716842 1.340541 -1.507610
Ni -0.070713 2.968972 -3.059928
Ni 1.475189 -1.539351 -1.650471
Ni -2.968881 -3.089864 -3.012347
Ni -1.382355 -1.351372 -1.604418
