16
Atomic coordinates from LammpsImplicitDer
Ni 0.117881 0.009345 0.222212
Ni 1.644991 1.799507 1.411266
Ni 3.128072 -0.137622 0.208903
Mo -1.670587 1.586734 1.553662
Mo 0.007371 -3.058606 -0.132389
Mo 1.606757 -1.717228 1.795411
Mo -3.092424 -2.871135 -0.244899
Mo -1.515470 -1.552800 1.758572
Mo 0.245699 0.223370 3.121564
Ni 1.658284 1.476907 -1.356925
Ni 3.031307 0.150918 2.995893
Mo -1.714522 1.340560 -1.505745
Ni -0.070792 2.969184 -3.060322
Ni 1.474333 -1.537547 -1.649450
Ni -2.968439 -3.090355 -3.012481
Ni -1.381657 -1.350537 -1.604370
