16
Atomic coordinates from LammpsImplicitDer
Ni 0.117606 0.010728 0.221023
Ni 1.645467 1.799268 1.411261
Ni 3.128190 -0.137696 0.209188
Mo -1.670928 1.586597 1.554359
Mo 0.007838 -3.059811 -0.133023
Mo 1.606492 -1.716185 1.794580
Mo -3.092817 -2.871651 -0.244321
Mo -1.515273 -1.551857 1.758644
Mo 0.246619 0.223580 3.123696
Ni 1.660311 1.477871 -1.357084
Ni 3.029923 0.149921 2.996365
Mo -1.715926 1.340501 -1.506811
Ni -0.070762 2.968903 -3.060038
Ni 1.474834 -1.538368 -1.650027
Ni -2.968836 -3.090156 -3.012468
Ni -1.381934 -1.350948 -1.604445
