16
Atomic coordinates from LammpsImplicitDer
Ni 0.117817 0.010485 0.221299
Ni 1.645519 1.799481 1.411015
Ni 3.128097 -0.137907 0.209325
Mo -1.671094 1.586630 1.554197
Mo 0.007765 -3.059626 -0.133121
Mo 1.606523 -1.716548 1.794978
Mo -3.092749 -2.871243 -0.244705
Mo -1.515249 -1.551983 1.758882
Mo 0.246752 0.223833 3.123388
Ni 1.660198 1.477669 -1.356899
Ni 3.029925 0.150168 2.996198
Mo -1.716054 1.340233 -1.506627
Ni -0.070872 2.968684 -3.059995
Ni 1.474629 -1.538281 -1.650161
Ni -2.968720 -3.090181 -3.012309
Ni -1.381682 -1.350720 -1.604565
