16
Atomic coordinates from LammpsImplicitDer
Ni 0.117512 0.011753 0.219914
Ni 1.645656 1.798895 1.411434
Ni 3.128171 -0.137555 0.209249
Mo -1.671205 1.586425 1.554850
Mo 0.008082 -3.060375 -0.133437
Mo 1.606215 -1.715832 1.794155
Mo -3.092933 -2.872045 -0.243688
Mo -1.515243 -1.551312 1.758646
Mo 0.247322 0.223917 3.124677
Ni 1.661546 1.478381 -1.356975
Ni 3.029073 0.149292 2.996635
Mo -1.716647 1.340524 -1.507430
Ni -0.070726 2.968932 -3.059947
Ni 1.475111 -1.539097 -1.650366
Ni -2.968891 -3.089941 -3.012386
Ni -1.382242 -1.351267 -1.604430
