16
Atomic coordinates from LammpsImplicitDer
Ni 0.117488 0.012473 0.219045
Ni 1.645740 1.798568 1.411613
Ni 3.128115 -0.137403 0.209247
Mo -1.671403 1.586284 1.555183
Mo 0.008225 -3.060672 -0.133719
Mo 1.605994 -1.715724 1.793927
Mo -3.092966 -2.872319 -0.243182
Mo -1.515259 -1.550972 1.758633
Mo 0.247834 0.224226 3.125182
Ni 1.662352 1.478658 -1.356818
Ni 3.028517 0.148897 2.996789
Mo -1.717065 1.340556 -1.507810
Ni -0.070693 2.969031 -3.059901
Ni 1.475277 -1.539644 -1.650593
Ni -2.968859 -3.089772 -3.012290
Ni -1.382492 -1.351491 -1.604405
