16
Atomic coordinates from LammpsImplicitDer
Ni 0.117498 0.012021 0.219600
Ni 1.645691 1.798779 1.411498
Ni 3.128155 -0.137501 0.209250
Mo -1.671277 1.586374 1.554975
Mo 0.008137 -3.060493 -0.133539
Mo 1.606135 -1.715780 1.794062
Mo -3.092948 -2.872149 -0.243503
Mo -1.515246 -1.551183 1.758641
Mo 0.247508 0.224023 3.124878
Ni 1.661846 1.478494 -1.356925
Ni 3.028866 0.149140 2.996696
Mo -1.716805 1.340537 -1.507575
Ni -0.070715 2.968963 -3.059932
Ni 1.475174 -1.539301 -1.650450
Ni -2.968883 -3.089879 -3.012355
Ni -1.382332 -1.351351 -1.604420
