16
Atomic coordinates from LammpsImplicitDer
Ni 0.117637 0.012752 0.218712
Ni 1.645854 1.798542 1.411506
Ni 3.128008 -0.137498 0.209378
Mo -1.671668 1.586225 1.555276
Mo 0.008276 -3.060757 -0.134004
Mo 1.605881 -1.715899 1.794083
Mo -3.092958 -2.872164 -0.243189
Mo -1.515239 -1.550832 1.758829
Mo 0.248285 0.224621 3.125340
Ni 1.662832 1.478683 -1.356583
Ni 3.028125 0.148828 2.996760
Mo -1.717491 1.340343 -1.507936
Ni -0.070756 2.968896 -3.059814
Ni 1.475238 -1.539900 -1.650856
Ni -2.968779 -3.089691 -3.012103
Ni -1.382442 -1.351454 -1.604495
