16
Atomic coordinates from LammpsImplicitDer
Ni 0.117685 0.011555 0.220175
Ni 1.645729 1.799107 1.411190
Ni 3.128103 -0.137768 0.209395
Mo -1.671360 1.586461 1.554717
Mo 0.008034 -3.060263 -0.133541
Mo 1.606248 -1.716097 1.794480
Mo -3.092895 -2.871682 -0.244052
Mo -1.515205 -1.551395 1.758870
Mo 0.247452 0.224127 3.124498
Ni 1.661499 1.478238 -1.356836
Ni 3.029038 0.149486 2.996500
Mo -1.716817 1.340273 -1.507300
Ni -0.070827 2.968703 -3.059894
Ni 1.474941 -1.539017 -1.650504
Ni -2.968817 -3.089968 -3.012253
Ni -1.382004 -1.351066 -1.604546
