16
Atomic coordinates from LammpsImplicitDer
Ni 0.117740 0.009923 0.221766
Ni 1.645231 1.799453 1.411223
Ni 3.128145 -0.137701 0.209057
Mo -1.670722 1.586694 1.553958
Mo 0.007591 -3.059190 -0.132666
Mo 1.606666 -1.716692 1.795020
Mo -3.092632 -2.871348 -0.244705
Mo -1.515360 -1.552367 1.758613
Mo 0.246079 0.223415 3.122599
Ni 1.659199 1.477357 -1.357045
Ni 3.030684 0.150477 2.996109
Mo -1.715185 1.340520 -1.506231
Ni -0.070783 2.969010 -3.060172
Ni 1.474564 -1.537865 -1.649717
Ni -2.968663 -3.090288 -3.012488
Ni -1.381749 -1.350705 -1.604420
