16
Atomic coordinates from LammpsImplicitDer
Ni 0.117560 0.011133 0.220605
Ni 1.645554 1.799136 1.411315
Ni 3.128191 -0.137655 0.209224
Mo -1.671036 1.586534 1.554555
Mo 0.007942 -3.060059 -0.133191
Mo 1.606389 -1.716013 1.794397
Mo -3.092876 -2.871806 -0.244087
Mo -1.515252 -1.551631 1.758649
Mo 0.246895 0.223699 3.124129
Ni 1.660818 1.478089 -1.357059
Ni 3.029575 0.149663 2.996478
Mo -1.716235 1.340504 -1.507069
Ni -0.070748 2.968896 -3.059994
Ni 1.474951 -1.538645 -1.650165
Ni -2.968876 -3.090076 -3.012443
Ni -1.382047 -1.351073 -1.604444
