16
Atomic coordinates from LammpsImplicitDer
Ni 0.117488 0.012462 0.219060
Ni 1.645739 1.798573 1.411609
Ni 3.128116 -0.137406 0.209247
Mo -1.671400 1.586287 1.555178
Mo 0.008223 -3.060668 -0.133714
Mo 1.605997 -1.715725 1.793930
Mo -3.092965 -2.872314 -0.243191
Mo -1.515259 -1.550978 1.758633
Mo 0.247826 0.224220 3.125175
Ni 1.662338 1.478654 -1.356821
Ni 3.028526 0.148903 2.996787
Mo -1.717058 1.340555 -1.507804
Ni -0.070694 2.969029 -3.059902
Ni 1.475274 -1.539636 -1.650589
Ni -2.968860 -3.089775 -3.012292
Ni -1.382488 -1.351488 -1.604405
