16
Atomic coordinates from LammpsImplicitDer
Ni 0.117770 0.005971 0.220138
Ni 1.637216 1.792953 1.417939
Ni 3.128357 -0.127884 0.202561
Mo -1.668052 1.584624 1.552931
Mo 0.003012 -3.045821 -0.126605
Mo 1.605506 -1.728206 1.798551
Mo -3.085831 -2.873549 -0.238587
Mo -1.519507 -1.560893 1.754874
Mo 0.239993 0.223518 3.099430
Ni 1.640815 1.470705 -1.352804
Ni 3.044263 0.154750 2.993395
Mo -1.698266 1.344975 -1.498508
Ni -0.069051 2.979552 -3.066522
Ni 1.471315 -1.538827 -1.640578
Ni -2.960724 -3.088195 -3.015624
Ni -1.386005 -1.352982 -1.599692
