16
Atomic coordinates from LammpsImplicitDer
Ni 0.117751 0.010932 0.220852
Ni 1.645621 1.799343 1.411072
Ni 3.128110 -0.137866 0.209368
Mo -1.671203 1.586566 1.554417
Mo 0.007887 -3.059923 -0.133301
Mo 1.606415 -1.716319 1.794750
Mo -3.092826 -2.871427 -0.244450
Mo -1.515220 -1.551723 1.758882
Mo 0.247041 0.223937 3.123908
Ni 1.660765 1.477927 -1.356894
Ni 3.029539 0.149872 2.996333
Mo -1.716402 1.340244 -1.506925
Ni -0.070854 2.968671 -3.059943
Ni 1.474769 -1.538577 -1.650310
Ni -2.968783 -3.090098 -3.012295
Ni -1.381808 -1.350864 -1.604563
