16
Atomic coordinates from LammpsImplicitDer
Ni 0.117660 0.011883 0.219797
Ni 1.645773 1.798966 1.411268
Ni 3.128089 -0.137701 0.209397
Mo -1.671443 1.586401 1.554872
Mo 0.008103 -3.060415 -0.133662
Mo 1.606153 -1.716016 1.794354
Mo -3.092918 -2.871816 -0.243824
Mo -1.515207 -1.551233 1.758859
Mo 0.247671 0.224244 3.124760
Ni 1.661867 1.478383 -1.356785
Ni 3.028786 0.149295 2.996581
Mo -1.717010 1.340294 -1.507483
Ni -0.070813 2.968740 -3.059876
Ni 1.475023 -1.539262 -1.650602
Ni -2.968815 -3.089893 -3.012222
Ni -1.382116 -1.351173 -1.604533
