16
Atomic coordinates from LammpsImplicitDer
Ni 0.120146 0.005815 0.221047
Ni 1.638238 1.794819 1.415379
Ni 3.128001 -0.129637 0.203843
Mo -1.672413 1.584128 1.552328
Mo 0.001898 -3.042888 -0.128355
Mo 1.604616 -1.734454 1.803746
Mo -3.083400 -2.868167 -0.241410
Mo -1.519298 -1.561940 1.759000
Mo 0.244135 0.228750 3.094687
Ni 1.640656 1.470430 -1.349100
Ni 3.042756 0.156381 2.991776
Mo -1.700426 1.341483 -1.496722
Ni -0.071420 2.976327 -3.067659
Ni 1.467571 -1.542824 -1.643526
Ni -2.957042 -3.086987 -3.013181
Ni -1.383206 -1.350543 -1.600958
