16
Atomic coordinates from LammpsImplicitDer
Ni 0.117556 0.011177 0.220558
Ni 1.645562 1.799121 1.411322
Ni 3.128190 -0.137649 0.209227
Mo -1.671048 1.586526 1.554576
Mo 0.007953 -3.060083 -0.133209
Mo 1.606377 -1.715997 1.794379
Mo -3.092881 -2.871823 -0.244061
Mo -1.515251 -1.551608 1.758650
Mo 0.246925 0.223713 3.124172
Ni 1.660871 1.478111 -1.357055
Ni 3.029538 0.149636 2.996490
Mo -1.716267 1.340505 -1.507095
Ni -0.070747 2.968896 -3.059990
Ni 1.474963 -1.538676 -1.650180
Ni -2.968879 -3.090067 -3.012440
Ni -1.382060 -1.351087 -1.604444
