16
Atomic coordinates from LammpsImplicitDer
Ni 0.117743 0.010992 0.220789
Ni 1.645633 1.799322 1.411081
Ni 3.128111 -0.137858 0.209372
Mo -1.671217 1.586556 1.554446
Mo 0.007902 -3.059959 -0.133325
Mo 1.606400 -1.716293 1.794722
Mo -3.092834 -2.871451 -0.244414
Mo -1.515217 -1.551690 1.758881
Mo 0.247081 0.223954 3.123971
Ni 1.660838 1.477959 -1.356891
Ni 3.029489 0.149833 2.996350
Mo -1.716445 1.340246 -1.506962
Ni -0.070852 2.968671 -3.059937
Ni 1.474787 -1.538618 -1.650329
Ni -2.968788 -3.090086 -3.012292
Ni -1.381825 -1.350884 -1.604562
