16
Atomic coordinates from LammpsImplicitDer
Ni 0.118073 0.009386 0.222231
Ni 1.645144 1.799680 1.411000
Ni 3.127980 -0.137865 0.209113
Mo -1.670862 1.586733 1.553634
Mo 0.007386 -3.058638 -0.132647
Mo 1.606723 -1.717446 1.795694
Mo -3.092419 -2.870786 -0.245187
Mo -1.515409 -1.552742 1.758858
Mo 0.246070 0.223729 3.121644
Ni 1.658600 1.476876 -1.356726
Ni 3.031003 0.150980 2.995802
Mo -1.714966 1.340243 -1.505764
Ni -0.070908 2.968890 -3.060216
Ni 1.474208 -1.537643 -1.649727
Ni -2.968374 -3.090333 -3.012289
Ni -1.381444 -1.350368 -1.604520
