16
Atomic coordinates from LammpsImplicitDer
Ni 0.117636 0.012608 0.218903
Ni 1.645845 1.798618 1.411464
Ni 3.128028 -0.137533 0.209382
Mo -1.671631 1.586256 1.555209
Mo 0.008246 -3.060704 -0.133942
Mo 1.605928 -1.715911 1.794123
Mo -3.092950 -2.872106 -0.243296
Mo -1.515231 -1.550897 1.758834
Mo 0.248179 0.224552 3.125250
Ni 1.662668 1.478645 -1.356623
Ni 3.028237 0.148901 2.996734
Mo -1.717410 1.340337 -1.507862
Ni -0.070770 2.968863 -3.059831
Ni 1.475198 -1.539802 -1.650816
Ni -2.968784 -3.089724 -3.012127
Ni -1.382383 -1.351407 -1.604501
