16
Atomic coordinates from LammpsImplicitDer
Ni 0.117662 0.011856 0.219828
Ni 1.645770 1.798978 1.411261
Ni 3.128091 -0.137707 0.209397
Mo -1.671436 1.586406 1.554859
Mo 0.008098 -3.060403 -0.133653
Mo 1.606161 -1.716022 1.794364
Mo -3.092916 -2.871805 -0.243843
Mo -1.515206 -1.551246 1.758860
Mo 0.247653 0.224234 3.124739
Ni 1.661837 1.478371 -1.356790
Ni 3.028806 0.149310 2.996574
Mo -1.716994 1.340292 -1.507468
Ni -0.070814 2.968737 -3.059878
Ni 1.475016 -1.539241 -1.650594
Ni -2.968815 -3.089900 -3.012225
Ni -1.382107 -1.351165 -1.604534
