16
Atomic coordinates from LammpsImplicitDer
Ni 0.117726 0.009991 0.221709
Ni 1.645254 1.799442 1.411222
Ni 3.128151 -0.137706 0.209071
Mo -1.670738 1.586688 1.553992
Mo 0.007614 -3.059250 -0.132697
Mo 1.606653 -1.716639 1.794979
Mo -3.092652 -2.871373 -0.244677
Mo -1.515350 -1.552321 1.758617
Mo 0.246123 0.223425 3.122705
Ni 1.659298 1.477405 -1.357054
Ni 3.030616 0.150429 2.996132
Mo -1.715254 1.340517 -1.506284
Ni -0.070782 2.968996 -3.060158
Ni 1.474588 -1.537904 -1.649745
Ni -2.968683 -3.090278 -3.012488
Ni -1.381762 -1.350725 -1.604423
