16
Atomic coordinates from LammpsImplicitDer
Ni 0.117489 0.012612 0.218868
Ni 1.645751 1.798499 1.411650
Ni 3.128098 -0.137372 0.209245
Mo -1.671441 1.586255 1.555247
Mo 0.008253 -3.060723 -0.133779
Mo 1.605949 -1.715713 1.793890
Mo -3.092972 -2.872371 -0.243084
Mo -1.515266 -1.550910 1.758630
Mo 0.247938 0.224294 3.125269
Ni 1.662509 1.478697 -1.356780
Ni 3.028409 0.148826 2.996814
Mo -1.717145 1.340559 -1.507881
Ni -0.070683 2.969057 -3.059886
Ni 1.475312 -1.539741 -1.650633
Ni -2.968853 -3.089740 -3.012267
Ni -1.382544 -1.351534 -1.604400
