16
Atomic coordinates from LammpsImplicitDer
Ni 0.117586 0.010895 0.220854
Ni 1.645505 1.799216 1.411280
Ni 3.128192 -0.137681 0.209205
Mo -1.670972 1.586572 1.554440
Mo 0.007883 -3.059918 -0.133093
Mo 1.606451 -1.716108 1.794502
Mo -3.092844 -2.871715 -0.244227
Mo -1.515263 -1.551762 1.758647
Mo 0.246733 0.223626 3.123883
Ni 1.660524 1.477964 -1.357077
Ni 3.029777 0.149813 2.996413
Mo -1.716058 1.340501 -1.506920
Ni -0.070756 2.968897 -3.060018
Ni 1.474884 -1.538481 -1.650085
Ni -2.968856 -3.090124 -3.012459
Ni -1.381980 -1.351000 -1.604446
