16
Atomic coordinates from LammpsImplicitDer
Ni 0.117494 0.012112 0.219491
Ni 1.645702 1.798737 1.411521
Ni 3.128149 -0.137481 0.209250
Mo -1.671302 1.586357 1.555017
Mo 0.008155 -3.060531 -0.133574
Mo 1.606107 -1.715764 1.794032
Mo -3.092952 -2.872184 -0.243438
Mo -1.515248 -1.551140 1.758638
Mo 0.247571 0.224061 3.124943
Ni 1.661947 1.478531 -1.356907
Ni 3.028796 0.149090 2.996717
Mo -1.716856 1.340543 -1.507623
Ni -0.070712 2.968975 -3.059927
Ni 1.475194 -1.539372 -1.650479
Ni -2.968879 -3.089858 -3.012344
Ni -1.382364 -1.351380 -1.604417
