16
Atomic coordinates from LammpsImplicitDer
Ni 0.117497 0.012047 0.219569
Ni 1.645694 1.798767 1.411504
Ni 3.128154 -0.137496 0.209250
Mo -1.671284 1.586369 1.554987
Mo 0.008142 -3.060504 -0.133549
Mo 1.606127 -1.715775 1.794054
Mo -3.092949 -2.872159 -0.243485
Mo -1.515247 -1.551170 1.758640
Mo 0.247526 0.224034 3.124897
Ni 1.661875 1.478505 -1.356920
Ni 3.028846 0.149126 2.996702
Mo -1.716820 1.340539 -1.507589
Ni -0.070714 2.968966 -3.059930
Ni 1.475180 -1.539321 -1.650459
Ni -2.968882 -3.089873 -3.012352
Ni -1.382341 -1.351360 -1.604419
