16
Atomic coordinates from LammpsImplicitDer
Ni 0.117529 0.011505 0.220197
Ni 1.645619 1.798997 1.411381
Ni 3.128182 -0.137600 0.209243
Mo -1.671137 1.586470 1.554733
Mo 0.008029 -3.060256 -0.133340
Mo 1.606287 -1.715894 1.794247
Mo -3.092914 -2.871949 -0.243854
Mo -1.515244 -1.551436 1.758649
Mo 0.247151 0.223825 3.124473
Ni 1.661260 1.478270 -1.357015
Ni 3.029270 0.149437 2.996575
Mo -1.716490 1.340514 -1.507290
Ni -0.070735 2.968911 -3.059963
Ni 1.475050 -1.538912 -1.650287
Ni -2.968891 -3.089997 -3.012412
Ni -1.382161 -1.351189 -1.604437
