16
Atomic coordinates from LammpsImplicitDer
Ni 0.117488 0.012485 0.219030
Ni 1.645741 1.798562 1.411616
Ni 3.128114 -0.137401 0.209247
Mo -1.671407 1.586282 1.555189
Mo 0.008228 -3.060676 -0.133724
Mo 1.605990 -1.715723 1.793924
Mo -3.092966 -2.872323 -0.243174
Mo -1.515260 -1.550967 1.758633
Mo 0.247843 0.224232 3.125190
Ni 1.662365 1.478661 -1.356815
Ni 3.028507 0.148891 2.996791
Mo -1.717072 1.340556 -1.507816
Ni -0.070693 2.969033 -3.059900
Ni 1.475280 -1.539652 -1.650596
Ni -2.968859 -3.089769 -3.012288
Ni -1.382496 -1.351495 -1.604404
