16
Atomic coordinates from LammpsImplicitDer
Ni 0.117643 0.010463 0.221282
Ni 1.645400 1.799341 1.411237
Ni 3.128181 -0.137710 0.209154
Mo -1.670858 1.586633 1.554229
Mo 0.007763 -3.059628 -0.132908
Mo 1.606555 -1.716325 1.794713
Mo -3.092768 -2.871551 -0.244460
Mo -1.515294 -1.552015 1.758637
Mo 0.246440 0.223514 3.123372
Ni 1.659962 1.477715 -1.357086
Ni 3.030163 0.150098 2.996286
Mo -1.715702 1.340503 -1.506631
Ni -0.070770 2.968924 -3.060074
Ni 1.474751 -1.538195 -1.649931
Ni -2.968794 -3.090203 -3.012479
Ni -1.381867 -1.350867 -1.604441
