16
Atomic coordinates from LammpsImplicitDer
Ni 0.117912 0.009997 0.221746
Ni 1.645377 1.799597 1.410984
Ni 3.128061 -0.137917 0.209251
Mo -1.670983 1.586688 1.553950
Mo 0.007612 -3.059239 -0.132915
Mo 1.606624 -1.716881 1.795265
Mo -3.092630 -2.871041 -0.244947
Mo -1.515303 -1.552296 1.758876
Mo 0.246442 0.223756 3.122705
Ni 1.659528 1.477347 -1.356858
Ni 3.030378 0.150513 2.996034
Mo -1.715615 1.340231 -1.506269
Ni -0.070890 2.968742 -3.060074
Ni 1.474456 -1.537981 -1.649983
Ni -2.968604 -3.090259 -3.012310
Ni -1.381563 -1.350563 -1.604555
