16
Atomic coordinates from LammpsImplicitDer
Ni 0.117854 0.010277 0.221496
Ni 1.645463 1.799536 1.410997
Ni 3.128084 -0.137916 0.209297
Mo -1.671046 1.586657 1.554092
Mo 0.007702 -3.059470 -0.133034
Mo 1.606568 -1.716678 1.795095
Mo -3.092703 -2.871157 -0.244813
Mo -1.515269 -1.552112 1.758880
Mo 0.246619 0.223795 3.123113
Ni 1.659919 1.477538 -1.356888
Ni 3.030114 0.150312 2.996131
Mo -1.715875 1.340230 -1.506479
Ni -0.070880 2.968703 -3.060025
Ni 1.474558 -1.538150 -1.650088
Ni -2.968677 -3.090216 -3.012312
Ni -1.381629 -1.350653 -1.604562
