16
Atomic coordinates from LammpsImplicitDer
Ni 0.117828 0.010422 0.221360
Ni 1.645503 1.799499 1.411009
Ni 3.128093 -0.137910 0.209317
Mo -1.671079 1.586639 1.554165
Mo 0.007746 -3.059580 -0.133095
Mo 1.606537 -1.716586 1.795013
Mo -3.092735 -2.871217 -0.244738
Mo -1.515255 -1.552021 1.758882
Mo 0.246711 0.223820 3.123307
Ni 1.660114 1.477630 -1.356896
Ni 3.029982 0.150211 2.996178
Mo -1.716000 1.340232 -1.506583
Ni -0.070874 2.968689 -3.060004
Ni 1.474608 -1.538241 -1.650139
Ni -2.968707 -3.090192 -3.012310
Ni -1.381666 -1.350699 -1.604564
