16
Atomic coordinates from LammpsImplicitDer
Ni 0.117488 0.012426 0.219106
Ni 1.645736 1.798591 1.411600
Ni 3.128120 -0.137414 0.209247
Mo -1.671390 1.586294 1.555161
Mo 0.008216 -3.060654 -0.133699
Mo 1.606009 -1.715728 1.793940
Mo -3.092964 -2.872301 -0.243216
Mo -1.515257 -1.550994 1.758634
Mo 0.247799 0.224203 3.125152
Ni 1.662298 1.478643 -1.356831
Ni 3.028554 0.148922 2.996780
Mo -1.717037 1.340554 -1.507786
Ni -0.070697 2.969022 -3.059906
Ni 1.475265 -1.539610 -1.650578
Ni -2.968862 -3.089783 -3.012297
Ni -1.382474 -1.351477 -1.604406
