16
Atomic coordinates from LammpsImplicitDer
Ni 0.117489 0.012266 0.219304
Ni 1.645719 1.798666 1.411560
Ni 3.128137 -0.137448 0.209248
Mo -1.671344 1.586327 1.555088
Mo 0.008185 -3.060593 -0.133633
Mo 1.606060 -1.715743 1.793984
Mo -3.092958 -2.872243 -0.243329
Mo -1.515252 -1.551068 1.758635
Mo 0.247681 0.224128 3.125048
Ni 1.662118 1.478589 -1.356872
Ni 3.028678 0.149006 2.996749
Mo -1.716943 1.340550 -1.507704
Ni -0.070705 2.968997 -3.059918
Ni 1.475229 -1.539490 -1.650528
Ni -2.968871 -3.089821 -3.012322
Ni -1.382418 -1.351428 -1.604411
