16
Atomic coordinates from LammpsImplicitDer
Ni 0.117688 0.011527 0.220207
Ni 1.645725 1.799119 1.411184
Ni 3.128104 -0.137773 0.209395
Mo -1.671352 1.586466 1.554704
Mo 0.008028 -3.060249 -0.133530
Mo 1.606256 -1.716105 1.794491
Mo -3.092893 -2.871670 -0.244070
Mo -1.515205 -1.551409 1.758871
Mo 0.247433 0.224118 3.124475
Ni 1.661467 1.478225 -1.356840
Ni 3.029059 0.149503 2.996493
Mo -1.716800 1.340271 -1.507284
Ni -0.070829 2.968700 -3.059896
Ni 1.474934 -1.538997 -1.650495
Ni -2.968816 -3.089974 -3.012256
Ni -1.381994 -1.351057 -1.604547
