16
Atomic coordinates from LammpsImplicitDer
Ni 0.117831 0.010406 0.221375
Ni 1.645498 1.799503 1.411007
Ni 3.128093 -0.137911 0.209315
Mo -1.671075 1.586641 1.554157
Mo 0.007741 -3.059568 -0.133088
Mo 1.606540 -1.716596 1.795022
Mo -3.092732 -2.871210 -0.244747
Mo -1.515256 -1.552031 1.758882
Mo 0.246701 0.223817 3.123286
Ni 1.660093 1.477620 -1.356896
Ni 3.029996 0.150223 2.996173
Mo -1.715987 1.340232 -1.506571
Ni -0.070875 2.968691 -3.060006
Ni 1.474602 -1.538231 -1.650133
Ni -2.968704 -3.090195 -3.012311
Ni -1.381661 -1.350694 -1.604564
