16
Atomic coordinates from LammpsImplicitDer
Ni 0.117568 0.011059 0.220683
Ni 1.645540 1.799162 1.411303
Ni 3.128192 -0.137664 0.209219
Mo -1.671016 1.586546 1.554520
Mo 0.007924 -3.060016 -0.133161
Mo 1.606408 -1.716041 1.794429
Mo -3.092867 -2.871778 -0.244132
Mo -1.515255 -1.551671 1.758649
Mo 0.246845 0.223676 3.124056
Ni 1.660728 1.478051 -1.357065
Ni 3.029637 0.149709 2.996459
Mo -1.716182 1.340503 -1.507023
Ni -0.070751 2.968895 -3.060001
Ni 1.474931 -1.538594 -1.650141
Ni -2.968871 -3.090091 -3.012448
Ni -1.382026 -1.351051 -1.604445
