16
Atomic coordinates from LammpsImplicitDer
Ni 0.117509 0.011808 0.219851
Ni 1.645664 1.798872 1.411447
Ni 3.128168 -0.137545 0.209250
Mo -1.671220 1.586415 1.554875
Mo 0.008094 -3.060400 -0.133458
Mo 1.606199 -1.715821 1.794135
Mo -3.092936 -2.872066 -0.243651
Mo -1.515243 -1.551286 1.758645
Mo 0.247360 0.223938 3.124720
Ni 1.661607 1.478405 -1.356966
Ni 3.029031 0.149261 2.996647
Mo -1.716680 1.340527 -1.507460
Ni -0.070723 2.968938 -3.059944
Ni 1.475124 -1.539138 -1.650383
Ni -2.968890 -3.089929 -3.012380
Ni -1.382260 -1.351284 -1.604428
