16
Atomic coordinates from LammpsImplicitDer
Ni 0.117653 0.010399 0.221342
Ni 1.645382 1.799357 1.411233
Ni 3.128179 -0.137712 0.209144
Mo -1.670841 1.586642 1.554197
Mo 0.007744 -3.059581 -0.132881
Mo 1.606569 -1.716362 1.794747
Mo -3.092754 -2.871527 -0.244491
Mo -1.515300 -1.552055 1.758635
Mo 0.246397 0.223500 3.123290
Ni 1.659876 1.477675 -1.357084
Ni 3.030222 0.150141 2.996266
Mo -1.715646 1.340504 -1.506586
Ni -0.070772 2.968931 -3.060084
Ni 1.474730 -1.538155 -1.649907
Ni -2.968782 -3.090214 -3.012481
Ni -1.381852 -1.350848 -1.604440
