16
Atomic coordinates from LammpsImplicitDer
Ni 0.117916 0.009980 0.221761
Ni 1.645372 1.799601 1.410984
Ni 3.128059 -0.137917 0.209248
Mo -1.670979 1.586689 1.553941
Mo 0.007606 -3.059224 -0.132908
Mo 1.606628 -1.716894 1.795276
Mo -3.092625 -2.871034 -0.244955
Mo -1.515305 -1.552307 1.758875
Mo 0.246432 0.223754 3.122679
Ni 1.659504 1.477336 -1.356856
Ni 3.030395 0.150526 2.996029
Mo -1.715599 1.340231 -1.506256
Ni -0.070890 2.968745 -3.060077
Ni 1.474450 -1.537971 -1.649976
Ni -2.968599 -3.090262 -3.012310
Ni -1.381559 -1.350557 -1.604554
