16
Atomic coordinates from LammpsImplicitDer
Ni 0.117679 0.011624 0.220096
Ni 1.645739 1.799078 1.411206
Ni 3.128101 -0.137754 0.209396
Mo -1.671377 1.586449 1.554750
Mo 0.008049 -3.060296 -0.133567
Mo 1.606228 -1.716078 1.794452
Mo -3.092901 -2.871710 -0.244004
Mo -1.515205 -1.551360 1.758868
Mo 0.247498 0.224151 3.124556
Ni 1.661578 1.478269 -1.356826
Ni 3.028984 0.149445 2.996518
Mo -1.716859 1.340277 -1.507339
Ni -0.070824 2.968710 -3.059890
Ni 1.474959 -1.539068 -1.650525
Ni -2.968817 -3.089952 -3.012247
Ni -1.382027 -1.351089 -1.604544
