16
Atomic coordinates from LammpsImplicitDer
Ni 0.117637 0.012361 0.219218
Ni 1.645825 1.798742 1.411395
Ni 3.128056 -0.137592 0.209388
Mo -1.671567 1.586308 1.555095
Mo 0.008197 -3.060612 -0.133840
Mo 1.606007 -1.715936 1.794193
Mo -3.092939 -2.872009 -0.243476
Mo -1.515220 -1.551008 1.758842
Mo 0.247999 0.224438 3.125093
Ni 1.662392 1.478570 -1.356687
Ni 3.028426 0.149030 2.996687
Mo -1.717272 1.340326 -1.507735
Ni -0.070789 2.968815 -3.059853
Ni 1.475135 -1.539627 -1.650745
Ni -2.968795 -3.089781 -3.012164
Ni -1.382288 -1.351329 -1.604510
