16
Atomic coordinates from LammpsImplicitDer
Ni 0.117646 0.012107 0.219530
Ni 1.645799 1.798863 1.411327
Ni 3.128077 -0.137650 0.209393
Mo -1.671500 1.586358 1.554977
Mo 0.008148 -3.060511 -0.133744
Mo 1.606085 -1.715972 1.794274
Mo -3.092929 -2.871909 -0.243661
Mo -1.515211 -1.551126 1.758850
Mo 0.247821 0.224330 3.124922
Ni 1.662113 1.478476 -1.356743
Ni 3.028617 0.149167 2.996633
Mo -1.717133 1.340311 -1.507603
Ni -0.070802 2.968773 -3.059866
Ni 1.475076 -1.539434 -1.650669
Ni -2.968807 -3.089841 -3.012198
Ni -1.382196 -1.351247 -1.604522
