16
Atomic coordinates from LammpsImplicitDer
Ni 0.117491 0.012735 0.218707
Ni 1.645760 1.798436 1.411684
Ni 3.128081 -0.137344 0.209242
Mo -1.671474 1.586229 1.555303
Mo 0.008278 -3.060767 -0.133833
Mo 1.605909 -1.715704 1.793858
Mo -3.092978 -2.872417 -0.242996
Mo -1.515273 -1.550855 1.758627
Mo 0.248030 0.224355 3.125344
Ni 1.662649 1.478728 -1.356745
Ni 3.028312 0.148765 2.996834
Mo -1.717217 1.340562 -1.507944
Ni -0.070671 2.969082 -3.059870
Ni 1.475346 -1.539823 -1.650669
Ni -2.968848 -3.089713 -3.012246
Ni -1.382592 -1.351572 -1.604396
