16
Atomic coordinates from LammpsImplicitDer
Ni 0.117623 0.010604 0.221146
Ni 1.645437 1.799303 1.411248
Ni 3.128187 -0.137704 0.209173
Mo -1.670895 1.586614 1.554298
Mo 0.007804 -3.059728 -0.132970
Mo 1.606522 -1.716247 1.794641
Mo -3.092795 -2.871604 -0.244387
Mo -1.515282 -1.551930 1.758641
Mo 0.246535 0.223548 3.123549
Ni 1.660150 1.477800 -1.357086
Ni 3.030034 0.150003 2.996329
Mo -1.715824 1.340501 -1.506728
Ni -0.070766 2.968911 -3.060054
Ni 1.474796 -1.538287 -1.649983
Ni -2.968819 -3.090178 -3.012473
Ni -1.381902 -1.350911 -1.604444
