16
Atomic coordinates from LammpsImplicitDer
Ni 0.117524 0.011575 0.220119
Ni 1.645630 1.798969 1.411396
Ni 3.128179 -0.137588 0.209245
Mo -1.671156 1.586457 1.554766
Mo 0.008044 -3.060291 -0.133368
Mo 1.606267 -1.715875 1.794220
Mo -3.092920 -2.871976 -0.243808
Mo -1.515243 -1.551401 1.758648
Mo 0.247199 0.223850 3.124532
Ni 1.661341 1.478302 -1.357004
Ni 3.029214 0.149396 2.996592
Mo -1.716535 1.340517 -1.507330
Ni -0.070732 2.968916 -3.059958
Ni 1.475067 -1.538964 -1.650309
Ni -2.968892 -3.089982 -3.012405
Ni -1.382183 -1.351211 -1.604435
