16
Atomic coordinates from LammpsImplicitDer
Ni 0.117488 0.012377 0.219166
Ni 1.645731 1.798614 1.411588
Ni 3.128126 -0.137424 0.209247
Mo -1.671376 1.586304 1.555139
Mo 0.008206 -3.060636 -0.133678
Mo 1.606024 -1.715732 1.793953
Mo -3.092962 -2.872283 -0.243250
Mo -1.515256 -1.551016 1.758634
Mo 0.247763 0.224180 3.125121
Ni 1.662243 1.478628 -1.356844
Ni 3.028592 0.148947 2.996771
Mo -1.717008 1.340553 -1.507761
Ni -0.070700 2.969014 -3.059910
Ni 1.475254 -1.539574 -1.650563
Ni -2.968864 -3.089794 -3.012305
Ni -1.382457 -1.351462 -1.604407
