16
Atomic coordinates from LammpsImplicitDer
Ni 0.117534 0.011435 0.220276
Ni 1.645608 1.799025 1.411368
Ni 3.128184 -0.137611 0.209240
Mo -1.671118 1.586482 1.554699
Mo 0.008013 -3.060221 -0.133313
Mo 1.606306 -1.715914 1.794274
Mo -3.092908 -2.871922 -0.243899
Mo -1.515244 -1.551472 1.758649
Mo 0.247102 0.223800 3.124412
Ni 1.661178 1.478237 -1.357024
Ni 3.029327 0.149479 2.996557
Mo -1.716444 1.340512 -1.507249
Ni -0.070737 2.968907 -3.059969
Ni 1.475032 -1.538861 -1.650264
Ni -2.968890 -3.090012 -3.012418
Ni -1.382139 -1.351167 -1.604439
