16
Atomic coordinates from LammpsImplicitDer
Ni 0.117654 0.011976 0.219687
Ni 1.645784 1.798924 1.411292
Ni 3.128084 -0.137680 0.209396
Mo -1.671467 1.586383 1.554916
Mo 0.008122 -3.060456 -0.133696
Mo 1.606125 -1.715997 1.794320
Mo -3.092923 -2.871855 -0.243757
Mo -1.515208 -1.551189 1.758856
Mo 0.247733 0.224279 3.124829
Ni 1.661969 1.478422 -1.356768
Ni 3.028716 0.149241 2.996603
Mo -1.717061 1.340301 -1.507533
Ni -0.070808 2.968753 -3.059872
Ni 1.475045 -1.539333 -1.650630
Ni -2.968812 -3.089872 -3.012213
Ni -1.382149 -1.351204 -1.604528
