16
Atomic coordinates from LammpsImplicitDer
Ni 0.117931 0.009912 0.221818
Ni 1.645349 1.799613 1.410983
Ni 3.128052 -0.137914 0.209235
Mo -1.670965 1.586696 1.553907
Mo 0.007583 -3.059164 -0.132879
Mo 1.606640 -1.716948 1.795320
Mo -3.092605 -2.871006 -0.244985
Mo -1.515315 -1.552353 1.758874
Mo 0.246390 0.223747 3.122573
Ni 1.659406 1.477287 -1.356846
Ni 3.030460 0.150575 2.996004
Mo -1.715533 1.340231 -1.506203
Ni -0.070892 2.968757 -3.060090
Ni 1.474424 -1.537931 -1.649950
Ni -2.968578 -3.090271 -3.012309
Ni -1.381544 -1.350535 -1.604552
