16
Atomic coordinates from LammpsImplicitDer
Ni 0.117541 0.011350 0.220370
Ni 1.645594 1.799057 1.411352
Ni 3.128187 -0.137624 0.209237
Mo -1.671095 1.586497 1.554659
Mo 0.007994 -3.060177 -0.133279
Mo 1.606330 -1.715940 1.794308
Mo -3.092900 -2.871889 -0.243953
Mo -1.515246 -1.551516 1.758650
Mo 0.247044 0.223770 3.124335
Ni 1.661078 1.478197 -1.357035
Ni 3.029396 0.149530 2.996535
Mo -1.716387 1.340509 -1.507199
Ni -0.070741 2.968902 -3.059975
Ni 1.475010 -1.538799 -1.650237
Ni -2.968887 -3.090031 -3.012426
Ni -1.382113 -1.351141 -1.604441
