16
Atomic coordinates from LammpsImplicitDer
Ni 0.117723 0.011169 0.220601
Ni 1.645667 1.799259 1.411112
Ni 3.128111 -0.137833 0.209383
Mo -1.671262 1.586528 1.554532
Mo 0.007945 -3.060061 -0.133394
Mo 1.606354 -1.716223 1.794642
Mo -3.092857 -2.871524 -0.244304
Mo -1.515211 -1.551594 1.758879
Mo 0.247197 0.224004 3.124149
Ni 1.661051 1.478051 -1.356879
Ni 3.029344 0.149721 2.996399
Mo -1.716568 1.340253 -1.507072
Ni -0.070844 2.968676 -3.059922
Ni 1.474837 -1.538741 -1.650385
Ni -2.968802 -3.090050 -3.012282
Ni -1.381879 -1.350941 -1.604558
