16
Atomic coordinates from LammpsImplicitDer
Ni 0.117648 0.010431 0.221312
Ni 1.645391 1.799349 1.411235
Ni 3.128180 -0.137711 0.209149
Mo -1.670850 1.586637 1.554213
Mo 0.007754 -3.059604 -0.132895
Mo 1.606562 -1.716344 1.794730
Mo -3.092761 -2.871539 -0.244476
Mo -1.515297 -1.552035 1.758636
Mo 0.246418 0.223507 3.123331
Ni 1.659919 1.477695 -1.357085
Ni 3.030192 0.150119 2.996276
Mo -1.715674 1.340503 -1.506608
Ni -0.070771 2.968927 -3.060079
Ni 1.474741 -1.538175 -1.649919
Ni -2.968789 -3.090209 -3.012480
Ni -1.381859 -1.350858 -1.604441
