16
Atomic coordinates from LammpsImplicitDer
Ni 0.117776 0.010750 0.221038
Ni 1.645583 1.799403 1.411045
Ni 3.128107 -0.137886 0.209353
Mo -1.671158 1.586593 1.554328
Mo 0.007839 -3.059808 -0.133228
Mo 1.606461 -1.716404 1.794839
Mo -3.092798 -2.871352 -0.244557
Mo -1.515230 -1.551826 1.758883
Mo 0.246923 0.223891 3.123707
Ni 1.660538 1.477826 -1.356900
Ni 3.029693 0.149990 2.996279
Mo -1.716265 1.340238 -1.506807
Ni -0.070862 2.968672 -3.059962
Ni 1.474714 -1.538454 -1.650251
Ni -2.968761 -3.090133 -3.012302
Ni -1.381755 -1.350805 -1.604565
