16
Atomic coordinates from LammpsImplicitDer
Ni 0.117695 0.011442 0.220302
Ni 1.645712 1.799153 1.411165
Ni 3.128106 -0.137788 0.209393
Mo -1.671331 1.586481 1.554663
Mo 0.008009 -3.060206 -0.133499
Mo 1.606279 -1.716130 1.794525
Mo -3.092885 -2.871635 -0.244127
Mo -1.515206 -1.551452 1.758873
Mo 0.247377 0.224090 3.124402
Ni 1.661370 1.478185 -1.356850
Ni 3.029125 0.149554 2.996472
Mo -1.716747 1.340266 -1.507235
Ni -0.070832 2.968693 -3.059902
Ni 1.474912 -1.538935 -1.650469
Ni -2.968815 -3.089992 -3.012263
Ni -1.381967 -1.351030 -1.604550
