16
Atomic coordinates from LammpsImplicitDer
Ni 0.117548 0.011264 0.220464
Ni 1.645578 1.799089 1.411336
Ni 3.128189 -0.137637 0.209232
Mo -1.671072 1.586512 1.554618
Mo 0.007974 -3.060131 -0.133244
Mo 1.606354 -1.715967 1.794343
Mo -3.092891 -2.871856 -0.244007
Mo -1.515248 -1.551561 1.758650
Mo 0.246985 0.223741 3.124256
Ni 1.660975 1.478155 -1.357046
Ni 3.029466 0.149583 2.996513
Mo -1.716328 1.340507 -1.507148
Ni -0.070744 2.968899 -3.059982
Ni 1.474987 -1.538738 -1.650209
Ni -2.968884 -3.090049 -3.012433
Ni -1.382086 -1.351114 -1.604442
