16
Atomic coordinates from LammpsImplicitDer
Ni 0.117640 0.012236 0.219373
Ni 1.645813 1.798802 1.411362
Ni 3.128068 -0.137620 0.209390
Mo -1.671533 1.586333 1.555037
Mo 0.008173 -3.060563 -0.133791
Mo 1.606046 -1.715952 1.794231
Mo -3.092934 -2.871961 -0.243567
Mo -1.515215 -1.551066 1.758845
Mo 0.247910 0.224382 3.125010
Ni 1.662253 1.478526 -1.356716
Ni 3.028521 0.149097 2.996662
Mo -1.717202 1.340320 -1.507671
Ni -0.070796 2.968794 -3.059860
Ni 1.475106 -1.539533 -1.650708
Ni -2.968801 -3.089810 -3.012182
Ni -1.382243 -1.351289 -1.604516
