16
Atomic coordinates from LammpsImplicitDer
Ni 0.117491 0.012190 0.219397
Ni 1.645711 1.798701 1.411541
Ni 3.128144 -0.137464 0.209248
Mo -1.671323 1.586342 1.555053
Mo 0.008170 -3.060563 -0.133603
Mo 1.606083 -1.715753 1.794007
Mo -3.092955 -2.872214 -0.243382
Mo -1.515250 -1.551103 1.758636
Mo 0.247625 0.224093 3.124996
Ni 1.662033 1.478562 -1.356890
Ni 3.028737 0.149047 2.996734
Mo -1.716899 1.340547 -1.507664
Ni -0.070708 2.968986 -3.059923
Ni 1.475212 -1.539432 -1.650504
Ni -2.968875 -3.089839 -3.012334
Ni -1.382391 -1.351405 -1.604414
