16
Atomic coordinates from LammpsImplicitDer
Ni 0.117579 0.010955 0.220792
Ni 1.645518 1.799197 1.411288
Ni 3.128192 -0.137675 0.209210
Mo -1.670988 1.586562 1.554470
Mo 0.007898 -3.059955 -0.133118
Mo 1.606435 -1.716082 1.794475
Mo -3.092853 -2.871738 -0.244193
Mo -1.515260 -1.551728 1.758648
Mo 0.246774 0.223644 3.123948
Ni 1.660599 1.477996 -1.357073
Ni 3.029725 0.149775 2.996430
Mo -1.716104 1.340501 -1.506958
Ni -0.070754 2.968896 -3.060012
Ni 1.474901 -1.538522 -1.650106
Ni -2.968862 -3.090112 -3.012455
Ni -1.381996 -1.351018 -1.604446
