16
Atomic coordinates from LammpsImplicitDer
Ni 0.120193 0.005743 0.220983
Ni 1.638304 1.794835 1.415370
Ni 3.127700 -0.129842 0.203929
Mo -1.672043 1.584249 1.552311
Mo 0.002229 -3.043417 -0.128532
Mo 1.604841 -1.733602 1.803318
Mo -3.084006 -2.868608 -0.241562
Mo -1.519304 -1.561629 1.758738
Mo 0.243999 0.228239 3.095714
Ni 1.641238 1.470177 -1.349521
Ni 3.042433 0.156267 2.991948
Mo -1.700785 1.341548 -1.497111
Ni -0.071035 2.976420 -3.067088
Ni 1.468291 -1.541691 -1.643390
Ni -2.957860 -3.087398 -3.013165
Ni -1.383385 -1.350601 -1.601045
