16
Atomic coordinates from LammpsImplicitDer
Ni 0.118051 0.009459 0.222178
Ni 1.645175 1.799674 1.410995
Ni 3.127992 -0.137875 0.209132
Mo -1.670875 1.586729 1.553672
Mo 0.007415 -3.058717 -0.132680
Mo 1.606713 -1.717369 1.795639
Mo -3.092448 -2.870817 -0.245163
Mo -1.515394 -1.552685 1.758861
Mo 0.246113 0.223727 3.121783
Ni 1.658716 1.476936 -1.356747
Ni 3.030925 0.150923 2.995831
Mo -1.715050 1.340241 -1.505827
Ni -0.070906 2.968867 -3.060196
Ni 1.474239 -1.537681 -1.649760
Ni -2.968407 -3.090326 -3.012293
Ni -1.381456 -1.350391 -1.604525
