16
Atomic coordinates from LammpsImplicitDer
Ni 0.117489 0.012304 0.219258
Ni 1.645723 1.798649 1.411569
Ni 3.128133 -0.137440 0.209248
Mo -1.671355 1.586319 1.555105
Mo 0.008192 -3.060607 -0.133648
Mo 1.606048 -1.715739 1.793974
Mo -3.092959 -2.872256 -0.243302
Mo -1.515253 -1.551050 1.758635
Mo 0.247708 0.224145 3.125072
Ni 1.662160 1.478603 -1.356863
Ni 3.028649 0.148986 2.996757
Mo -1.716965 1.340551 -1.507723
Ni -0.070703 2.969003 -3.059916
Ni 1.475237 -1.539519 -1.650540
Ni -2.968869 -3.089812 -3.012317
Ni -1.382431 -1.351440 -1.604410
