16
Atomic coordinates from LammpsImplicitDer
Ni 0.118807 0.006038 0.220708
Ni 1.637589 1.793818 1.416738
Ni 3.128775 -0.128329 0.203011
Mo -1.670819 1.584155 1.552656
Mo 0.001824 -3.043420 -0.127056
Mo 1.604633 -1.732833 1.801853
Mo -3.083488 -2.870124 -0.239604
Mo -1.519382 -1.562004 1.757313
Mo 0.242184 0.227010 3.095178
Ni 1.639615 1.471093 -1.350226
Ni 3.044182 0.155759 2.992282
Mo -1.698582 1.343219 -1.496883
Ni -0.070957 2.977820 -3.068182
Ni 1.468098 -1.542984 -1.642276
Ni -2.957366 -3.086812 -3.014494
Ni -1.384304 -1.351714 -1.600121
