16
Atomic coordinates from LammpsImplicitDer
Ni 0.117695 0.010156 0.221565
Ni 1.645309 1.799411 1.411223
Ni 3.128164 -0.137712 0.209104
Mo -1.670779 1.586670 1.554076
Mo 0.007669 -3.059391 -0.132772
Mo 1.606621 -1.716519 1.794881
Mo -3.092697 -2.871435 -0.244606
Mo -1.515328 -1.552210 1.758625
Mo 0.246234 0.223452 3.122954
Ni 1.659538 1.477519 -1.357070
Ni 3.030453 0.150310 2.996188
Mo -1.715419 1.340511 -1.506410
Ni -0.070778 2.968965 -3.060125
Ni 1.474648 -1.538004 -1.649813
Ni -2.968728 -3.090254 -3.012486
Ni -1.381797 -1.350775 -1.604431
