16
Atomic coordinates from LammpsImplicitDer
Ni 0.117649 0.012055 0.219592
Ni 1.645793 1.798887 1.411313
Ni 3.128080 -0.137662 0.209394
Mo -1.671487 1.586368 1.554953
Mo 0.008138 -3.060489 -0.133725
Mo 1.606101 -1.715982 1.794292
Mo -3.092927 -2.871887 -0.243699
Mo -1.515210 -1.551151 1.758852
Mo 0.247786 0.224309 3.124885
Ni 1.662056 1.478455 -1.356754
Ni 3.028656 0.149197 2.996621
Mo -1.717105 1.340307 -1.507576
Ni -0.070805 2.968765 -3.059868
Ni 1.475064 -1.539393 -1.650653
Ni -2.968809 -3.089853 -3.012204
Ni -1.382177 -1.351230 -1.604524
