16
Atomic coordinates from LammpsImplicitDer
Ni 0.117636 0.012596 0.218917
Ni 1.645844 1.798624 1.411460
Ni 3.128029 -0.137536 0.209383
Mo -1.671629 1.586259 1.555203
Mo 0.008244 -3.060700 -0.133937
Mo 1.605931 -1.715912 1.794126
Mo -3.092950 -2.872102 -0.243305
Mo -1.515230 -1.550902 1.758835
Mo 0.248170 0.224547 3.125243
Ni 1.662655 1.478642 -1.356626
Ni 3.028246 0.148907 2.996732
Mo -1.717404 1.340336 -1.507857
Ni -0.070771 2.968861 -3.059832
Ni 1.475195 -1.539795 -1.650813
Ni -2.968785 -3.089726 -3.012129
Ni -1.382379 -1.351404 -1.604501
