16
Atomic coordinates from LammpsImplicitDer
Ni 0.117806 0.009631 0.222002
Ni 1.645118 1.799490 1.411237
Ni 3.128113 -0.137672 0.208986
Mo -1.670652 1.586718 1.553809
Mo 0.007485 -3.058911 -0.132528
Mo 1.606716 -1.716942 1.795209
Mo -3.092536 -2.871240 -0.244813
Mo -1.515410 -1.552578 1.758594
Mo 0.245885 0.223384 3.122105
Ni 1.658750 1.477139 -1.356995
Ni 3.030990 0.150696 2.996003
Mo -1.714865 1.340537 -1.505994
Ni -0.070789 2.969086 -3.060241
Ni 1.474451 -1.537699 -1.649588
Ni -2.968561 -3.090325 -3.012487
Ni -1.381698 -1.350619 -1.604399
