16
Atomic coordinates from LammpsImplicitDer
Ni 0.117555 0.011191 0.220542
Ni 1.645565 1.799116 1.411324
Ni 3.128190 -0.137647 0.209228
Mo -1.671052 1.586524 1.554583
Mo 0.007956 -3.060091 -0.133215
Mo 1.606373 -1.715992 1.794373
Mo -3.092883 -2.871828 -0.244052
Mo -1.515250 -1.551600 1.758650
Mo 0.246935 0.223717 3.124186
Ni 1.660888 1.478119 -1.357053
Ni 3.029526 0.149627 2.996494
Mo -1.716277 1.340505 -1.507104
Ni -0.070746 2.968897 -3.059989
Ni 1.474967 -1.538686 -1.650185
Ni -2.968880 -3.090064 -3.012439
Ni -1.382065 -1.351092 -1.604443
