16
Atomic coordinates from LammpsImplicitDer
Ni 0.117491 0.012177 0.219413
Ni 1.645709 1.798707 1.411537
Ni 3.128145 -0.137467 0.209249
Mo -1.671319 1.586344 1.555047
Mo 0.008168 -3.060557 -0.133598
Mo 1.606087 -1.715754 1.794011
Mo -3.092954 -2.872209 -0.243392
Mo -1.515250 -1.551109 1.758637
Mo 0.247616 0.224088 3.124988
Ni 1.662019 1.478557 -1.356893
Ni 3.028747 0.149054 2.996731
Mo -1.716892 1.340546 -1.507657
Ni -0.070709 2.968985 -3.059924
Ni 1.475209 -1.539422 -1.650499
Ni -2.968876 -3.089842 -3.012335
Ni -1.382387 -1.351401 -1.604414
