16
Atomic coordinates from LammpsImplicitDer
Ni 0.117488 0.012390 0.219151
Ni 1.645732 1.798608 1.411591
Ni 3.128125 -0.137422 0.209247
Mo -1.671380 1.586302 1.555145
Mo 0.008209 -3.060640 -0.133683
Mo 1.606020 -1.715731 1.793950
Mo -3.092962 -2.872288 -0.243242
Mo -1.515256 -1.551011 1.758634
Mo 0.247772 0.224186 3.125129
Ni 1.662257 1.478632 -1.356841
Ni 3.028582 0.148941 2.996774
Mo -1.717015 1.340554 -1.507767
Ni -0.070699 2.969016 -3.059909
Ni 1.475257 -1.539584 -1.650567
Ni -2.968864 -3.089792 -3.012303
Ni -1.382461 -1.351466 -1.604407
