16
Atomic coordinates from LammpsImplicitDer
Ni 0.117507 0.011848 0.219804
Ni 1.645669 1.798855 1.411456
Ni 3.128166 -0.137537 0.209250
Mo -1.671231 1.586407 1.554894
Mo 0.008102 -3.060418 -0.133474
Mo 1.606187 -1.715812 1.794121
Mo -3.092939 -2.872082 -0.243624
Mo -1.515244 -1.551266 1.758645
Mo 0.247388 0.223954 3.124751
Ni 1.661653 1.478422 -1.356959
Ni 3.028999 0.149238 2.996657
Mo -1.716704 1.340528 -1.507482
Ni -0.070722 2.968942 -3.059941
Ni 1.475134 -1.539168 -1.650396
Ni -2.968889 -3.089920 -3.012376
Ni -1.382273 -1.351297 -1.604427
