16
Atomic coordinates from LammpsImplicitDer
Ni 0.117815 0.009596 0.222029
Ni 1.645103 1.799493 1.411239
Ni 3.128108 -0.137667 0.208977
Mo -1.670644 1.586720 1.553791
Mo 0.007472 -3.058876 -0.132511
Mo 1.606722 -1.716975 1.795233
Mo -3.092523 -2.871227 -0.244825
Mo -1.515417 -1.552604 1.758592
Mo 0.245862 0.223381 3.122041
Ni 1.658694 1.477111 -1.356988
Ni 3.031028 0.150722 2.995990
Mo -1.714825 1.340540 -1.505964
Ni -0.070789 2.969097 -3.060251
Ni 1.474437 -1.537680 -1.649572
Ni -2.968547 -3.090329 -3.012486
Ni -1.381692 -1.350608 -1.604396
