16
Atomic coordinates from LammpsImplicitDer
Ni 0.117528 0.011519 0.220181
Ni 1.645622 1.798991 1.411384
Ni 3.128181 -0.137597 0.209244
Mo -1.671141 1.586467 1.554739
Mo 0.008032 -3.060263 -0.133346
Mo 1.606283 -1.715890 1.794241
Mo -3.092915 -2.871954 -0.243844
Mo -1.515243 -1.551429 1.758649
Mo 0.247160 0.223830 3.124485
Ni 1.661277 1.478277 -1.357013
Ni 3.029259 0.149429 2.996578
Mo -1.716499 1.340515 -1.507298
Ni -0.070734 2.968912 -3.059962
Ni 1.475053 -1.538923 -1.650291
Ni -2.968891 -3.089994 -3.012410
Ni -1.382166 -1.351194 -1.604437
