16
Atomic coordinates from LammpsImplicitDer
Ni 0.117642 0.012198 0.219420
Ni 1.645809 1.798820 1.411352
Ni 3.128071 -0.137629 0.209391
Mo -1.671523 1.586341 1.555019
Mo 0.008166 -3.060548 -0.133776
Mo 1.606058 -1.715957 1.794243
Mo -3.092933 -2.871946 -0.243595
Mo -1.515214 -1.551084 1.758846
Mo 0.247883 0.224366 3.124984
Ni 1.662211 1.478512 -1.356725
Ni 3.028550 0.149117 2.996653
Mo -1.717181 1.340318 -1.507651
Ni -0.070798 2.968788 -3.059862
Ni 1.475097 -1.539504 -1.650696
Ni -2.968803 -3.089819 -3.012187
Ni -1.382229 -1.351277 -1.604517
