16
Atomic coordinates from LammpsImplicitDer
Ni 0.117689 0.011513 0.220223
Ni 1.645723 1.799125 1.411181
Ni 3.128104 -0.137775 0.209395
Mo -1.671349 1.586469 1.554697
Mo 0.008025 -3.060242 -0.133525
Mo 1.606260 -1.716109 1.794496
Mo -3.092892 -2.871664 -0.244080
Mo -1.515205 -1.551416 1.758871
Mo 0.247424 0.224113 3.124463
Ni 1.661451 1.478218 -1.356841
Ni 3.029070 0.149511 2.996490
Mo -1.716791 1.340270 -1.507276
Ni -0.070829 2.968699 -3.059897
Ni 1.474930 -1.538986 -1.650491
Ni -2.968816 -3.089977 -3.012257
Ni -1.381990 -1.351053 -1.604548
