16
Atomic coordinates from LammpsImplicitDer
Ni 0.117537 0.011392 0.220323
Ni 1.645601 1.799041 1.411360
Ni 3.128186 -0.137618 0.209239
Mo -1.671107 1.586490 1.554679
Mo 0.008003 -3.060199 -0.133296
Mo 1.606318 -1.715926 1.794291
Mo -3.092904 -2.871906 -0.243926
Mo -1.515245 -1.551494 1.758650
Mo 0.247073 0.223785 3.124374
Ni 1.661128 1.478217 -1.357030
Ni 3.029361 0.149505 2.996546
Mo -1.716416 1.340510 -1.507224
Ni -0.070739 2.968904 -3.059972
Ni 1.475021 -1.538830 -1.650251
Ni -2.968889 -3.090021 -3.012422
Ni -1.382126 -1.351154 -1.604440
