16
Atomic coordinates from LammpsImplicitDer
Ni 0.117666 0.010319 0.221417
Ni 1.645359 1.799376 1.411229
Ni 3.128174 -0.137713 0.209132
Mo -1.670821 1.586651 1.554157
Mo 0.007720 -3.059520 -0.132845
Mo 1.606586 -1.716412 1.794790
Mo -3.092736 -2.871497 -0.244530
Mo -1.515309 -1.552105 1.758632
Mo 0.246343 0.223483 3.123182
Ni 1.659766 1.477625 -1.357081
Ni 3.030297 0.150196 2.996241
Mo -1.715573 1.340506 -1.506529
Ni -0.070774 2.968940 -3.060097
Ni 1.474704 -1.538104 -1.649877
Ni -2.968766 -3.090228 -3.012483
Ni -1.381833 -1.350824 -1.604437
