16
Atomic coordinates from LammpsImplicitDer
Ni 0.117804 0.010564 0.221223
Ni 1.645539 1.799459 1.411023
Ni 3.128100 -0.137902 0.209334
Mo -1.671113 1.586620 1.554236
Mo 0.007787 -3.059682 -0.133153
Mo 1.606505 -1.716503 1.794935
Mo -3.092764 -2.871275 -0.244662
Mo -1.515243 -1.551935 1.758883
Mo 0.246803 0.223849 3.123487
Ni 1.660300 1.477717 -1.356901
Ni 3.029855 0.150114 2.996223
Mo -1.716118 1.340234 -1.506682
Ni -0.070869 2.968680 -3.059984
Ni 1.474655 -1.538332 -1.650188
Ni -2.968733 -3.090167 -3.012308
Ni -1.381703 -1.350745 -1.604565
