16
Atomic coordinates from LammpsImplicitDer
Ni 0.117577 0.010970 0.220776
Ni 1.645521 1.799192 1.411290
Ni 3.128192 -0.137674 0.209211
Mo -1.670992 1.586560 1.554477
Mo 0.007902 -3.059964 -0.133124
Mo 1.606431 -1.716076 1.794468
Mo -3.092855 -2.871744 -0.244184
Mo -1.515259 -1.551720 1.758648
Mo 0.246784 0.223648 3.123963
Ni 1.660618 1.478004 -1.357072
Ni 3.029713 0.149765 2.996434
Mo -1.716115 1.340502 -1.506967
Ni -0.070754 2.968895 -3.060010
Ni 1.474906 -1.538532 -1.650111
Ni -2.968864 -3.090109 -3.012454
Ni -1.382001 -1.351023 -1.604446
