16
Atomic coordinates from LammpsImplicitDer
Ni 0.117525 0.011561 0.220134
Ni 1.645628 1.798975 1.411393
Ni 3.128180 -0.137590 0.209245
Mo -1.671152 1.586460 1.554759
Mo 0.008041 -3.060284 -0.133362
Mo 1.606271 -1.715879 1.794225
Mo -3.092919 -2.871971 -0.243817
Mo -1.515243 -1.551408 1.758649
Mo 0.247189 0.223845 3.124521
Ni 1.661325 1.478296 -1.357006
Ni 3.029225 0.149404 2.996588
Mo -1.716526 1.340516 -1.507322
Ni -0.070733 2.968915 -3.059959
Ni 1.475064 -1.538953 -1.650305
Ni -2.968892 -3.089985 -3.012406
Ni -1.382179 -1.351207 -1.604436
