16
Atomic coordinates from LammpsImplicitDer
Ni 0.119985 0.005948 0.221320
Ni 1.638285 1.794942 1.415325
Ni 3.128594 -0.129438 0.203731
Mo -1.673063 1.583999 1.552324
Mo 0.001350 -3.042139 -0.127953
Mo 1.604282 -1.735755 1.804419
Mo -3.082423 -2.867373 -0.241221
Mo -1.519220 -1.562352 1.759467
Mo 0.244330 0.229517 3.093165
Ni 1.639770 1.471083 -1.348483
Ni 3.043173 0.156534 2.991544
Mo -1.699872 1.341403 -1.496125
Ni -0.072194 2.975951 -3.068641
Ni 1.466271 -1.544926 -1.643977
Ni -2.955692 -3.086322 -3.013115
Ni -1.382767 -1.350377 -1.600881
