16
Atomic coordinates from LammpsImplicitDer
Ni 0.117737 0.009940 0.221752
Ni 1.645237 1.799450 1.411223
Ni 3.128147 -0.137702 0.209060
Mo -1.670726 1.586693 1.553967
Mo 0.007597 -3.059205 -0.132674
Mo 1.606663 -1.716678 1.795009
Mo -3.092637 -2.871354 -0.244698
Mo -1.515357 -1.552356 1.758614
Mo 0.246090 0.223418 3.122626
Ni 1.659224 1.477369 -1.357047
Ni 3.030667 0.150465 2.996115
Mo -1.715202 1.340519 -1.506245
Ni -0.070783 2.969007 -3.060168
Ni 1.474570 -1.537874 -1.649724
Ni -2.968668 -3.090285 -3.012488
Ni -1.381752 -1.350710 -1.604421
