16
Atomic coordinates from LammpsImplicitDer
Ni 0.117551 0.011235 0.220495
Ni 1.645573 1.799100 1.411331
Ni 3.128189 -0.137641 0.209230
Mo -1.671064 1.586517 1.554604
Mo 0.007967 -3.060115 -0.133232
Mo 1.606362 -1.715977 1.794354
Mo -3.092888 -2.871845 -0.244025
Mo -1.515249 -1.551577 1.758650
Mo 0.246965 0.223732 3.124228
Ni 1.660941 1.478140 -1.357049
Ni 3.029490 0.149600 2.996505
Mo -1.716308 1.340506 -1.507130
Ni -0.070745 2.968898 -3.059985
Ni 1.474979 -1.538717 -1.650199
Ni -2.968882 -3.090055 -3.012435
Ni -1.382078 -1.351105 -1.604443
