16
Atomic coordinates from LammpsImplicitDer
Ni 0.117755 0.009855 0.221823
Ni 1.645206 1.799463 1.411225
Ni 3.128138 -0.137696 0.209042
Mo -1.670705 1.586701 1.553924
Mo 0.007567 -3.059128 -0.132634
Mo 1.606678 -1.716746 1.795062
Mo -3.092611 -2.871323 -0.244732
Mo -1.515371 -1.552415 1.758609
Mo 0.246034 0.223406 3.122489
Ni 1.659097 1.477308 -1.357036
Ni 3.030754 0.150527 2.996085
Mo -1.715113 1.340524 -1.506178
Ni -0.070785 2.969026 -3.060187
Ni 1.474538 -1.537825 -1.649688
Ni -2.968641 -3.090297 -3.012488
Ni -1.381736 -1.350685 -1.604415
