16
Atomic coordinates from LammpsImplicitDer
Ni 0.117738 0.011037 0.220742
Ni 1.645642 1.799307 1.411088
Ni 3.128111 -0.137852 0.209375
Mo -1.671229 1.586549 1.554468
Mo 0.007913 -3.059985 -0.133342
Mo 1.606389 -1.716275 1.794701
Mo -3.092840 -2.871469 -0.244386
Mo -1.515216 -1.551666 1.758880
Mo 0.247110 0.223966 3.124017
Ni 1.660892 1.477983 -1.356888
Ni 3.029452 0.149805 2.996362
Mo -1.716476 1.340247 -1.506990
Ni -0.070850 2.968672 -3.059933
Ni 1.474800 -1.538648 -1.650344
Ni -2.968792 -3.090077 -3.012289
Ni -1.381839 -1.350898 -1.604561
