16
Atomic coordinates from LammpsImplicitDer
Ni 0.117488 0.012328 0.219227
Ni 1.645726 1.798637 1.411575
Ni 3.128131 -0.137435 0.209248
Mo -1.671362 1.586314 1.555117
Mo 0.008197 -3.060617 -0.133658
Mo 1.606040 -1.715737 1.793967
Mo -3.092960 -2.872265 -0.243285
Mo -1.515254 -1.551039 1.758635
Mo 0.247727 0.224157 3.125089
Ni 1.662188 1.478611 -1.356856
Ni 3.028630 0.148973 2.996762
Mo -1.716980 1.340552 -1.507736
Ni -0.070702 2.969007 -3.059914
Ni 1.475243 -1.539537 -1.650548
Ni -2.968867 -3.089806 -3.012313
Ni -1.382440 -1.351447 -1.604409
