16
Atomic coordinates from LammpsImplicitDer
Ni 0.117757 0.010887 0.220898
Ni 1.645612 1.799358 1.411065
Ni 3.128110 -0.137871 0.209365
Mo -1.671191 1.586573 1.554395
Mo 0.007875 -3.059895 -0.133283
Mo 1.606427 -1.716339 1.794772
Mo -3.092819 -2.871408 -0.244477
Mo -1.515222 -1.551748 1.758882
Mo 0.247012 0.223925 3.123860
Ni 1.660709 1.477902 -1.356896
Ni 3.029577 0.149901 2.996320
Mo -1.716368 1.340242 -1.506896
Ni -0.070856 2.968671 -3.059948
Ni 1.474755 -1.538546 -1.650296
Ni -2.968778 -3.090107 -3.012297
Ni -1.381794 -1.350850 -1.604563
