16
Atomic coordinates from LammpsImplicitDer
Ni 0.117740 0.011022 0.220758
Ni 1.645639 1.799312 1.411086
Ni 3.128111 -0.137854 0.209374
Mo -1.671225 1.586552 1.554461
Mo 0.007909 -3.059976 -0.133336
Mo 1.606392 -1.716281 1.794708
Mo -3.092838 -2.871463 -0.244396
Mo -1.515216 -1.551674 1.758881
Mo 0.247100 0.223962 3.124002
Ni 1.660874 1.477975 -1.356889
Ni 3.029465 0.149814 2.996358
Mo -1.716466 1.340247 -1.506981
Ni -0.070850 2.968672 -3.059935
Ni 1.474795 -1.538638 -1.650339
Ni -2.968791 -3.090080 -3.012290
Ni -1.381834 -1.350893 -1.604561
