16
Atomic coordinates from LammpsImplicitDer
Ni 0.117661 0.010351 0.221387
Ni 1.645368 1.799368 1.411230
Ni 3.128176 -0.137713 0.209137
Mo -1.670829 1.586648 1.554173
Mo 0.007730 -3.059545 -0.132859
Mo 1.606579 -1.716392 1.794772
Mo -3.092744 -2.871509 -0.244515
Mo -1.515305 -1.552085 1.758633
Mo 0.246365 0.223490 3.123226
Ni 1.659810 1.477645 -1.357082
Ni 3.030267 0.150174 2.996251
Mo -1.715602 1.340505 -1.506552
Ni -0.070773 2.968936 -3.060092
Ni 1.474714 -1.538124 -1.649889
Ni -2.968773 -3.090222 -3.012482
Ni -1.381840 -1.350833 -1.604438
