16
Atomic coordinates from LammpsImplicitDer
Ni 0.118025 0.009548 0.222111
Ni 1.645213 1.799666 1.410990
Ni 3.128006 -0.137887 0.209155
Mo -1.670891 1.586724 1.553719
Mo 0.007450 -3.058812 -0.132719
Mo 1.606700 -1.717278 1.795572
Mo -3.092483 -2.870854 -0.245131
Mo -1.515376 -1.552617 1.758864
Mo 0.246166 0.223727 3.121950
Ni 1.658857 1.477009 -1.356771
Ni 3.030831 0.150853 2.995867
Mo -1.715150 1.340238 -1.505904
Ni -0.070903 2.968841 -3.060173
Ni 1.474278 -1.537728 -1.649799
Ni -2.968445 -3.090316 -3.012297
Ni -1.381472 -1.350419 -1.604532
