16
Atomic coordinates from LammpsImplicitDer
Ni 0.117530 0.011491 0.220213
Ni 1.645617 1.799003 1.411379
Ni 3.128182 -0.137602 0.209243
Mo -1.671133 1.586472 1.554726
Mo 0.008026 -3.060249 -0.133335
Mo 1.606291 -1.715898 1.794252
Mo -3.092913 -2.871944 -0.243863
Mo -1.515244 -1.551444 1.758649
Mo 0.247141 0.223820 3.124461
Ni 1.661244 1.478264 -1.357017
Ni 3.029281 0.149446 2.996571
Mo -1.716481 1.340514 -1.507282
Ni -0.070735 2.968910 -3.059964
Ni 1.475046 -1.538902 -1.650282
Ni -2.968891 -3.090000 -3.012413
Ni -1.382157 -1.351185 -1.604438
