16
Atomic coordinates from LammpsImplicitDer
Ni 0.117505 0.011888 0.219757
Ni 1.645675 1.798837 1.411465
Ni 3.128164 -0.137529 0.209250
Mo -1.671242 1.586400 1.554913
Mo 0.008110 -3.060436 -0.133489
Mo 1.606175 -1.715804 1.794107
Mo -3.092941 -2.872097 -0.243596
Mo -1.515244 -1.551247 1.758644
Mo 0.247416 0.223970 3.124781
Ni 1.661698 1.478439 -1.356951
Ni 3.028968 0.149215 2.996666
Mo -1.716728 1.340530 -1.507504
Ni -0.070720 2.968946 -3.059939
Ni 1.475143 -1.539199 -1.650409
Ni -2.968888 -3.089910 -3.012371
Ni -1.382287 -1.351310 -1.604425
