16
Atomic coordinates from LammpsImplicitDer
Ni 0.117666 0.011802 0.219891
Ni 1.645763 1.799002 1.411248
Ni 3.128093 -0.137718 0.209397
Mo -1.671422 1.586416 1.554834
Mo 0.008087 -3.060379 -0.133633
Mo 1.606176 -1.716034 1.794384
Mo -3.092913 -2.871783 -0.243881
Mo -1.515206 -1.551273 1.758862
Mo 0.247617 0.224214 3.124698
Ni 1.661777 1.478348 -1.356799
Ni 3.028847 0.149341 2.996561
Mo -1.716964 1.340288 -1.507439
Ni -0.070816 2.968730 -3.059880
Ni 1.475003 -1.539201 -1.650578
Ni -2.968816 -3.089912 -3.012231
Ni -1.382088 -1.351147 -1.604536
