16
Atomic coordinates from LammpsImplicitDer
Ni 0.117637 0.012409 0.219157
Ni 1.645829 1.798718 1.411408
Ni 3.128051 -0.137580 0.209387
Mo -1.671580 1.586298 1.555117
Mo 0.008207 -3.060630 -0.133859
Mo 1.605991 -1.715931 1.794179
Mo -3.092941 -2.872028 -0.243441
Mo -1.515221 -1.550986 1.758840
Mo 0.248034 0.224460 3.125124
Ni 1.662446 1.478586 -1.356675
Ni 3.028389 0.149004 2.996697
Mo -1.717299 1.340328 -1.507761
Ni -0.070786 2.968824 -3.059849
Ni 1.475147 -1.539662 -1.650759
Ni -2.968792 -3.089769 -3.012157
Ni -1.382307 -1.351344 -1.604509
