16
Atomic coordinates from LammpsImplicitDer
Ni 0.117490 0.012679 0.218780
Ni 1.645756 1.798465 1.411668
Ni 3.128088 -0.137357 0.209244
Mo -1.671459 1.586241 1.555278
Mo 0.008266 -3.060747 -0.133809
Mo 1.605927 -1.715708 1.793872
Mo -3.092975 -2.872396 -0.243036
Mo -1.515270 -1.550880 1.758629
Mo 0.247989 0.224327 3.125311
Ni 1.662586 1.478714 -1.356761
Ni 3.028356 0.148792 2.996825
Mo -1.717185 1.340560 -1.507915
Ni -0.070676 2.969071 -3.059878
Ni 1.475330 -1.539786 -1.650653
Ni -2.968850 -3.089725 -3.012255
Ni -1.382571 -1.351555 -1.604398
