16
Atomic coordinates from LammpsImplicitDer
Ni 0.117956 0.009810 0.221904
Ni 1.645313 1.799631 1.410982
Ni 3.128041 -0.137909 0.209214
Mo -1.670944 1.586705 1.553854
Mo 0.007547 -3.059070 -0.132835
Mo 1.606658 -1.717034 1.795388
Mo -3.092574 -2.870964 -0.245029
Mo -1.515331 -1.552425 1.758871
Mo 0.246326 0.223739 3.122407
Ni 1.659256 1.477212 -1.356829
Ni 3.030562 0.150652 2.995967
Mo -1.715429 1.340233 -1.506122
Ni -0.070896 2.968778 -3.060112
Ni 1.474384 -1.537873 -1.649909
Ni -2.968544 -3.090285 -3.012306
Ni -1.381522 -1.350503 -1.604547
