16
Atomic coordinates from LammpsImplicitDer
Ni 0.117747 0.010962 0.220820
Ni 1.645628 1.799333 1.411076
Ni 3.128110 -0.137862 0.209370
Mo -1.671210 1.586561 1.554432
Mo 0.007894 -3.059941 -0.133313
Mo 1.606408 -1.716306 1.794736
Mo -3.092830 -2.871439 -0.244432
Mo -1.515219 -1.551707 1.758881
Mo 0.247061 0.223945 3.123940
Ni 1.660801 1.477943 -1.356893
Ni 3.029514 0.149852 2.996341
Mo -1.716423 1.340245 -1.506944
Ni -0.070853 2.968671 -3.059940
Ni 1.474778 -1.538597 -1.650320
Ni -2.968786 -3.090092 -3.012293
Ni -1.381816 -1.350874 -1.604562
