16
Atomic coordinates from LammpsImplicitDer
Ni 0.117646 0.010447 0.221297
Ni 1.645395 1.799345 1.411236
Ni 3.128181 -0.137710 0.209151
Mo -1.670854 1.586635 1.554221
Mo 0.007759 -3.059616 -0.132901
Mo 1.606558 -1.716334 1.794722
Mo -3.092764 -2.871545 -0.244468
Mo -1.515296 -1.552025 1.758636
Mo 0.246429 0.223511 3.123352
Ni 1.659941 1.477705 -1.357085
Ni 3.030177 0.150109 2.996281
Mo -1.715688 1.340503 -1.506620
Ni -0.070770 2.968925 -3.060077
Ni 1.474746 -1.538185 -1.649925
Ni -2.968792 -3.090206 -3.012479
Ni -1.381863 -1.350863 -1.604441
