16
Atomic coordinates from LammpsImplicitDer
Ni 0.117669 0.010303 0.221432
Ni 1.645354 1.799379 1.411228
Ni 3.128174 -0.137713 0.209129
Mo -1.670817 1.586653 1.554149
Mo 0.007715 -3.059508 -0.132838
Mo 1.606590 -1.716422 1.794799
Mo -3.092733 -2.871491 -0.244538
Mo -1.515311 -1.552115 1.758631
Mo 0.246332 0.223480 3.123160
Ni 1.659744 1.477614 -1.357080
Ni 3.030312 0.150207 2.996236
Mo -1.715558 1.340506 -1.506517
Ni -0.070774 2.968943 -3.060100
Ni 1.474698 -1.538094 -1.649870
Ni -2.968762 -3.090230 -3.012483
Ni -1.381829 -1.350819 -1.604437
