16
Atomic coordinates from LammpsImplicitDer
Ni 0.117554 0.011206 0.220527
Ni 1.645568 1.799110 1.411326
Ni 3.128190 -0.137645 0.209229
Mo -1.671056 1.586522 1.554590
Mo 0.007960 -3.060099 -0.133221
Mo 1.606369 -1.715987 1.794366
Mo -3.092884 -2.871834 -0.244043
Mo -1.515250 -1.551592 1.758650
Mo 0.246945 0.223722 3.124200
Ni 1.660906 1.478126 -1.357052
Ni 3.029514 0.149618 2.996498
Mo -1.716287 1.340505 -1.507113
Ni -0.070746 2.968897 -3.059987
Ni 1.474971 -1.538697 -1.650190
Ni -2.968881 -3.090061 -3.012437
Ni -1.382069 -1.351096 -1.604443
