16
Atomic coordinates from LammpsImplicitDer
Ni 0.117798 0.009666 0.221975
Ni 1.645132 1.799486 1.411234
Ni 3.128117 -0.137676 0.208995
Mo -1.670660 1.586716 1.553827
Mo 0.007498 -3.058946 -0.132545
Mo 1.606711 -1.716910 1.795185
Mo -3.092548 -2.871252 -0.244801
Mo -1.515403 -1.552552 1.758597
Mo 0.245908 0.223387 3.122167
Ni 1.658805 1.477166 -1.357002
Ni 3.030952 0.150669 2.996016
Mo -1.714905 1.340535 -1.506023
Ni -0.070788 2.969076 -3.060232
Ni 1.474465 -1.537718 -1.649604
Ni -2.968575 -3.090321 -3.012487
Ni -1.381703 -1.350629 -1.604401
