16
Atomic coordinates from LammpsImplicitDer
Ni 0.117510 0.011794 0.219867
Ni 1.645662 1.798878 1.411443
Ni 3.128169 -0.137547 0.209250
Mo -1.671216 1.586417 1.554869
Mo 0.008091 -3.060394 -0.133453
Mo 1.606203 -1.715823 1.794140
Mo -3.092935 -2.872061 -0.243661
Mo -1.515243 -1.551292 1.758646
Mo 0.247350 0.223933 3.124709
Ni 1.661592 1.478399 -1.356968
Ni 3.029041 0.149269 2.996644
Mo -1.716671 1.340526 -1.507452
Ni -0.070724 2.968936 -3.059944
Ni 1.475121 -1.539127 -1.650379
Ni -2.968890 -3.089932 -3.012382
Ni -1.382255 -1.351280 -1.604429
