16
Atomic coordinates from LammpsImplicitDer
Ni 0.117696 0.011428 0.220317
Ni 1.645710 1.799159 1.411163
Ni 3.128107 -0.137791 0.209393
Mo -1.671327 1.586484 1.554656
Mo 0.008006 -3.060199 -0.133493
Mo 1.606283 -1.716134 1.794531
Mo -3.092884 -2.871630 -0.244136
Mo -1.515206 -1.551459 1.758873
Mo 0.247368 0.224085 3.124389
Ni 1.661354 1.478179 -1.356852
Ni 3.029137 0.149562 2.996468
Mo -1.716738 1.340266 -1.507227
Ni -0.070833 2.968692 -3.059903
Ni 1.474908 -1.538925 -1.650465
Ni -2.968814 -3.089995 -3.012264
Ni -1.381962 -1.351025 -1.604551
