16
Atomic coordinates from LammpsImplicitDer
Ni 0.118089 0.009332 0.222270
Ni 1.645120 1.799683 1.411005
Ni 3.127971 -0.137856 0.209098
Mo -1.670852 1.586735 1.553606
Mo 0.007363 -3.058577 -0.132623
Mo 1.606730 -1.717506 1.795737
Mo -3.092396 -2.870763 -0.245205
Mo -1.515421 -1.552785 1.758856
Mo 0.246037 0.223731 3.121536
Ni 1.658511 1.476829 -1.356710
Ni 3.031063 0.151024 2.995779
Mo -1.714902 1.340245 -1.505715
Ni -0.070909 2.968907 -3.060231
Ni 1.474184 -1.537615 -1.649702
Ni -2.968348 -3.090338 -3.012286
Ni -1.381435 -1.350351 -1.604515
