16
Atomic coordinates from LammpsImplicitDer
Ni 0.117649 0.012068 0.219577
Ni 1.645795 1.798881 1.411317
Ni 3.128079 -0.137659 0.209394
Mo -1.671490 1.586366 1.554959
Mo 0.008140 -3.060495 -0.133729
Mo 1.606097 -1.715979 1.794288
Mo -3.092927 -2.871893 -0.243690
Mo -1.515210 -1.551145 1.758852
Mo 0.247795 0.224314 3.124895
Ni 1.662070 1.478460 -1.356751
Ni 3.028647 0.149189 2.996624
Mo -1.717112 1.340308 -1.507583
Ni -0.070804 2.968767 -3.059868
Ni 1.475067 -1.539403 -1.650657
Ni -2.968809 -3.089850 -3.012202
Ni -1.382182 -1.351234 -1.604524
