16
Atomic coordinates from LammpsImplicitDer
Ni 0.117488 0.012532 0.218971
Ni 1.645745 1.798539 1.411628
Ni 3.128108 -0.137390 0.209246
Mo -1.671420 1.586272 1.555210
Mo 0.008237 -3.060694 -0.133744
Mo 1.605975 -1.715719 1.793911
Mo -3.092968 -2.872340 -0.243141
Mo -1.515262 -1.550946 1.758632
Mo 0.247878 0.224254 3.125219
Ni 1.662418 1.478675 -1.356802
Ni 3.028471 0.148867 2.996800
Mo -1.717099 1.340557 -1.507840
Ni -0.070689 2.969041 -3.059895
Ni 1.475292 -1.539686 -1.650610
Ni -2.968856 -3.089759 -3.012280
Ni -1.382514 -1.351509 -1.604403
