16
Atomic coordinates from LammpsImplicitDer
Ni 0.120332 0.005725 0.220753
Ni 1.638616 1.795041 1.415066
Ni 3.126944 -0.130750 0.204547
Mo -1.671218 1.584572 1.552294
Mo 0.003107 -3.045367 -0.129530
Mo 1.605236 -1.731211 1.802152
Mo -3.085624 -2.869528 -0.242021
Mo -1.519057 -1.560692 1.758223
Mo 0.243942 0.227372 3.099090
Ni 1.643519 1.469568 -1.350560
Ni 3.041275 0.155833 2.992301
Mo -1.702532 1.341435 -1.498234
Ni -0.070042 2.976361 -3.065365
Ni 1.470215 -1.538673 -1.643156
Ni -2.960140 -3.088304 -3.013213
Ni -1.383762 -1.350691 -1.601450
