16
Atomic coordinates from LammpsImplicitDer
Ni 0.117811 0.009613 0.222016
Ni 1.645111 1.799491 1.411238
Ni 3.128111 -0.137669 0.208981
Mo -1.670648 1.586719 1.553800
Mo 0.007478 -3.058894 -0.132520
Mo 1.606719 -1.716959 1.795221
Mo -3.092530 -2.871233 -0.244819
Mo -1.515413 -1.552591 1.758593
Mo 0.245874 0.223382 3.122073
Ni 1.658722 1.477125 -1.356992
Ni 3.031009 0.150709 2.995997
Mo -1.714845 1.340539 -1.505979
Ni -0.070789 2.969092 -3.060246
Ni 1.474444 -1.537689 -1.649580
Ni -2.968554 -3.090327 -3.012487
Ni -1.381695 -1.350614 -1.604397
