16
Atomic coordinates from LammpsImplicitDer
Ni 0.117839 0.010358 0.221420
Ni 1.645485 1.799516 1.411003
Ni 3.128090 -0.137913 0.209309
Mo -1.671064 1.586647 1.554133
Mo 0.007727 -3.059532 -0.133068
Mo 1.606551 -1.716626 1.795049
Mo -3.092721 -2.871191 -0.244772
Mo -1.515261 -1.552061 1.758881
Mo 0.246670 0.223808 3.123223
Ni 1.660028 1.477589 -1.356893
Ni 3.030040 0.150256 2.996157
Mo -1.715945 1.340231 -1.506537
Ni -0.070877 2.968695 -3.060013
Ni 1.474586 -1.538200 -1.650116
Ni -2.968694 -3.090203 -3.012311
Ni -1.381649 -1.350679 -1.604564
